1
    SWAT Sep 7    VER 2018/Rev 670                                                                       0/ 0/   0      0: 0: 0

    General Input/Output section (file.cio):                                        
    2020-04-11 00:00:00 ARCGIS-SWAT interface AV                                    
                                                                                    
         Number of years in run:   36
         Area of watershed:    34545.756 km2
         Random number generator cycles: 0, use default numbers

         Initial random number seed: wet/dry day prob        748932582
         Initial random number seed: radiation              1948832765
         Initial random number seed: precipitation           857034417
         Initial random number seed: 0.5 hr rainfall          67377721
         Initial random number seed: wind speed              366304404
         Initial random number seed: irrigation             1094585182
         Initial random number seed: relative humidity      1767585417
         Initial random number seed: max temperature         608439319
         Initial random number seed: min temperature         592757081

         Precipitation data used in run:
          Multiple gages read for watershed
             Daily rainfall data used

         Temperature data used in run:
          Multiple gages read for watershed

         PET method used: Penman-Monteith

         Rainfall/Runoff/Routing Option:
          Daily rainfall data
          Runoff estimated with curve number method
          Daily stream routing
           Variable Storage routing method
           Channel dimensions remain constant
           Subbasin algae/CBOD loadings not modeled
           In-stream nutrient transformations modeled using QUAL2E equations

         Subbasin Input Summary:
          Sub Latitude  Elev(m) #HRUs Ponds Elevbnds Wetlnd
            1   -10.77  4299.64     1                   
            2   -10.77  4408.51     1                   
            3   -11.08  4569.37     1                   
            4   -11.71  3728.11     1                   
            5   -12.02  3843.16     1                   
            6   -12.65  3593.33     1                   
            7   -12.96  3582.54     1                   
            8   -13.58  4058.64     1                   
            9   -10.77  4341.29     1                   
           10   -11.08  4238.88     1                   
           11   -11.71  4100.69     1                   
           12   -12.02  3172.62     1                   
           13   -12.65  4494.24     1                   
           14   -12.96  4708.37     1                   
           15   -10.77  4501.95     1                   
           16   -11.40  4379.74     1                   
           17   -11.71  3758.17     1                   
           18   -12.02  3869.74     1                   
           19   -12.65  3808.00     1                   
           20   -12.96  3294.50     1                   
           21   -10.77  4211.77     1                   
           22   -11.40  4593.08     1                   
           23   -11.71  4678.75     1                   
           24   -12.33  3782.20     1                   
           25   -12.65  4220.55     1                   
           26   -12.96  3940.06     1                   
           27   -10.77  4174.85     1                   
           28   -11.40  4349.52     1                   
           29   -11.71  4607.30     1                   
           30   -12.33  3304.10     1                   
           31   -12.65  4177.66     1                   
           32   -12.96  4292.34     1                   
           33   -10.77  4331.66     1                   
           34   -11.40  4264.09     1                   
           35   -11.71  4087.76     1                   
           36   -12.33  4450.98     1                   
           37   -12.65  4696.26     1                   
           38   -12.96  4407.28     1                   
           39   -11.08  4521.46     1                   
           40   -11.40  4635.90     1                   
           41   -11.71  3719.83     1                   
           42   -12.33  4133.66     1                   
           43   -12.65  4594.49     1                   
           44   -12.96  4583.52     1                   
           45   -11.08  4607.17     1                   
           46   -11.40  4576.12     1                   
           47   -11.71  4635.23     1                   
           48   -12.33  3804.48     1                   
           49   -12.65  4083.39     1                   
           50   -13.27  4114.05     1                   
           51   -11.08  4274.36     1                   
           52   -11.40  4690.41     1                   
           53   -11.71  3365.11     1                   
           54   -12.33  3822.94     1                   
           55   -12.65  4626.23     1                   
           56   -13.27  4310.45     1                   
           57   -11.71  4607.89     1                   
           58   -11.71  4116.23     1                   
           59   -12.33  3260.49     1                   
           60   -12.65  3850.98     1                   
           61   -13.27  3272.19     1                   
           62   -10.77  4231.82     1                   
           63   -11.40  4423.74     1                   
           64   -11.71  4444.80     1                   
           65   -12.33  2068.86     1                   
           66   -12.65  3966.92     1                   
           67   -13.27  4506.06     1                   
           68   -12.02  3958.43     1                   
           69   -12.33  3384.61     1                   
           70   -12.96  4075.43     1                   
           71   -13.27  4423.74     1                   
           72   -11.08  4124.91     1                   
           73   -11.08  4320.43     1                   
           74   -12.02  4244.45     1                   
           75   -12.33  3787.11     1                   
           76   -12.65  4597.02     1                   
           77   -13.27  3461.48     1                   
           78   -12.02  3267.13     1                   
           79   -12.33  4096.52     1                   
           80   -12.96  4698.43     1                   
           81   -13.27  4199.89     1                   
           82   -11.08  4101.51     1                   
           83   -11.40  4145.49     1                   
           84   -12.02  4514.93     1                   
           85   -12.33  3113.63     1                   
           86   -12.96  4499.59     1                   
           87   -13.27  3572.16     1                   
           88   -12.02  4301.26     1                   
           89   -12.33  4427.22     1                   
           90   -13.27  4362.80     1                   
           91   -10.77  4264.17     1                   
           92   -12.02  4175.02     1                   
           93   -12.65  3067.04     1                   
           94   -12.65  4473.81     1                   
           95   -13.27  3792.55     1                   
           96   -11.40  4260.49     1                   
           97   -12.02  3970.10     1                   
           98   -12.65  3281.52     1                   
           99   -11.08  4312.67     1                   
          100   -11.40  4282.20     1                   
          101   -12.02  4209.64     1                   
          102   -12.65  4115.36     1                   
          103   -12.33  2163.85     1                   
          104   -12.65  4136.03     1                   
          105   -12.96  4044.72     1                   
          106   -11.71  4162.82     1                   
          107   -11.71  3430.35     1                   
          108   -12.02  2087.25     1                   
          109   -12.65  4163.34     1                   
          110   -12.96  3077.08     1                   
          111   -11.71  4316.83     1                   
          112   -12.33  3222.36     1                   
          113   -12.96  4178.36     1                   
          114   -12.02  4107.54     1                   
          115   -12.02  4116.84     1                   
          116   -12.96  3560.25     1                   
          117   -11.71  2969.74     1                   
          118   -12.02  3008.45     1                   
          119   -12.96  2685.84     1                   
          120   -13.27  3708.42     1                   
          121   -11.71  4114.11     1                   
          122   -12.65  3680.93     1                   
          123   -12.02  2076.83     1                   
          124   -12.02  3405.40     1                   
          125   -12.65  3494.91     1                   
          126   -11.71  4322.66     1                   
          127   -12.02  3647.23     1                   
          128   -12.65  3475.53     1                   
          129   -12.96  3859.78     1                   
          130   -12.02  3841.66     1                   
          131   -12.33  3708.48     1                   
          132   -12.96  3153.69     1                   
          133   -12.96  3239.88     1                   
          134   -12.65  3387.56     1                   
          135   -11.71  4118.04     1                   
          136   -12.33  3800.36     1                   
          137   -12.33  3166.58     1                   
          138   -11.71  3998.83     1                   
          139   -11.71  3870.38     1                   
          140   -12.33  3791.04     1                   
          141   -12.96  2990.80     1                   
          142   -12.33  3085.16     1                   
          143   -12.96  2996.14     1                   
          144   -11.71  3539.54     1                   
          145   -12.33  3021.40     1                   
          146   -12.02  3414.07     1                   
          147   -12.02  3435.52     1                   
          148   -12.02  2730.80     1                   
          149   -12.02  2455.80     1                   
          150   -12.02  2508.63     1                   
          151   -12.02  1983.27     1                   
          152   -12.33  1695.87     1                   
          153   -12.33  1289.95     1                   
          154   -12.33   941.54     1                   

         HRU Input Summary Table 1:
          Sub   HRU   Area(ha) Slope SlpLgth(m) Ovrlnd_N CondII_CN TimeConc(hr) ESCO EPCO
            1      1   28517.97 0.087      60.98    0.140     77.00        3.071 0.95 1.00
            2      2   20986.45 0.092      60.98    0.140     83.00        2.674 0.95 1.00
            3      3   15216.45 0.213      15.24    0.150     79.00        1.598 0.95 1.00
            4      4   30555.64 0.590       9.15    0.100     70.00        1.362 0.95 1.00
            5      5   33168.42 0.534       9.15    0.100     77.00        1.504 0.95 1.00
            6      6   16761.62 0.542       9.15    0.150     79.00        0.774 0.95 1.00
            7      7   10036.52 0.351       9.15    0.150     79.00        0.901 0.95 1.00
            8      8   42490.58 0.250      15.24    0.150     79.00        2.207 0.95 1.00
            9      9   18617.56 0.167      18.29    0.150     69.00        2.883 0.95 1.00
           10     10   37816.52 0.115      60.98    0.140     83.00        3.102 0.95 1.00
           11     11   33336.79 0.193      18.29    0.150     84.00        2.623 0.95 1.00
           12     12   18719.83 0.578       9.15    0.100     70.00        0.858 0.95 1.00
           13     13   63209.53 0.230      15.24    0.150     79.00        3.347 0.95 1.00
           14     14   21341.27 0.255       9.15    0.150     79.00        1.825 0.95 1.00
           15     15   28248.90 0.196      18.29    0.140     83.00        3.465 0.95 1.00
           16     16   11055.35 0.230      15.24    0.150     79.00        1.604 0.95 1.00
           17     17   28844.47 0.235      15.24    0.150     84.00        1.944 0.95 1.00
           18     18   24250.66 0.271       9.15    0.150     84.00        1.278 0.95 1.00
           19     19   10668.28 0.524       9.15    0.150     79.00        0.851 0.95 1.00
           20     20   10356.72 0.279       9.15    0.150     79.00        1.212 0.95 1.00
           21     21   16889.08 0.089      60.98    0.150     69.00        2.911 0.95 1.00
           22     22   20623.76 0.221      15.24    0.150     79.00        1.987 0.95 1.00
           23     23   36939.30 0.337       9.15    0.150     79.00        2.102 0.95 1.00
           24     24   10297.72 0.203      15.24    0.150     84.00        1.553 0.95 1.00
           25     25   23918.65 0.320       9.15    0.150     79.00        1.405 0.95 1.00
           26     26   14933.23 0.313       9.15    0.150     84.00        1.439 0.95 1.00
           27     27   13251.95 0.063      60.98    0.140     83.00        3.075 0.95 1.00
           28     28   12694.15 0.221      15.24    0.150     79.00        1.447 0.95 1.00
           29     29   14324.28 0.324       9.15    0.150     79.00        1.036 0.95 1.00
           30     30   13583.17 0.611       9.15    0.100     70.00        0.762 0.95 1.00
           31     31   18577.43 0.334       9.15    0.150     79.00        1.406 0.95 1.00
           32     32   10396.85 0.367       9.15    0.150     84.00        1.107 0.95 1.00
           33     33   12178.83 0.181      18.29    0.140     87.00        1.960 0.95 1.00
           34     34   30772.78 0.242      15.24    0.150     79.00        2.035 0.95 1.00
           35     35   23386.81 0.307       9.15    0.150     84.00        1.846 0.95 1.00
           36     36   40607.89 0.216      15.24    0.150     79.00        2.287 0.95 1.00
           37     37   17763.15 0.163      18.29    0.150     79.00        1.693 0.95 1.00
           38     38   17711.23 0.325       9.15    0.150     84.00        1.204 0.95 1.00
           39     39   25701.42 0.151      24.39    0.140     83.00        3.073 0.95 1.00
           40     40   15666.47 0.255       9.15    0.150     79.00        1.187 0.95 1.00
           41     41   23714.10 0.600       9.15    0.100     70.00        1.035 0.95 1.00
           42     42   24007.55 0.163      18.29    0.150     79.00        1.894 0.95 1.00
           43     43   18109.32 0.303       9.15    0.150     79.00        1.026 0.95 1.00
           44     44   33961.46 0.380       9.15    0.150     84.00        1.540 0.95 1.00
           45     45   22280.65 0.149      24.39    0.140     83.00        2.517 0.95 1.00
           46     46   15955.99 0.290       9.15    0.150     79.00        1.637 0.95 1.00
           47     47   22896.67 0.267       9.15    0.150     79.00        1.549 0.95 1.00
           48     48   35949.57 0.429       9.15    0.150     79.00        1.300 0.95 1.00
           49     49   14588.63 0.238      15.24    0.150     84.00        1.648 0.95 1.00
           50     50   17416.98 0.298       9.15    0.150     84.00        1.015 0.95 1.00
           51     51   40800.65 0.140      24.39    0.150     69.00        3.621 0.95 1.00
           52     52   18070.77 0.323       9.15    0.100     73.00        1.362 0.95 1.00
           53     53   11582.47 0.608       9.15    0.100     70.00        0.754 0.95 1.00
           54     54   16153.47 0.602       9.15    0.100     70.00        1.009 0.95 1.00
           55     55   18542.03 0.197      18.29    0.150     79.00        1.323 0.95 1.00
           56     56   14568.18 0.281       9.15    0.150     84.00        1.178 0.95 1.00
           57     57   14745.19 0.271       9.15    0.150     79.00        1.202 0.95 1.00
           58     58   16926.05 0.255       9.15    0.150     84.00        1.884 0.95 1.00
           59     59   25925.64 0.612       9.15    0.100     77.00        1.007 0.95 1.00
           60     60   15649.95 0.510       9.15    0.150     84.00        0.848 0.95 1.00
           61     61   12083.63 0.324       9.15    0.150     79.00        1.085 0.95 1.00
           62     62   12606.03 0.071      60.98    0.140     77.00        2.947 0.95 1.00
           63     63   26953.13 0.208      15.24    0.150     79.00        1.738 0.95 1.00
           64     64   19570.31 0.199      18.29    0.150     84.00        1.232 0.95 1.00
           65     65   13003.34 0.588       9.15    0.100     70.00        0.982 0.95 1.00
           66     66   16010.28 0.263       9.15    0.150     79.00        1.191 0.95 1.00
           67     67   24378.11 0.312       9.15    0.150     84.00        1.568 0.95 1.00
           68     68   36748.90 0.575       9.15    0.100     77.00        1.466 0.95 1.00
           69     69   13270.04 0.550       9.15    0.150     84.00        0.932 0.95 1.00
           70     70   10698.96 0.223      15.24    0.150     84.00        1.761 0.95 1.00
           71     71   15811.23 0.249      15.24    0.150     84.00        1.332 0.95 1.00
           72     72   17412.26 0.062      60.98    0.010     92.00        1.443 0.95 1.00
           73     73   12493.53 0.241      15.24    0.150     79.00        1.444 0.95 1.00
           74     74   30285.79 0.273       9.15    0.150     84.00        1.851 0.95 1.00
           75     75   26409.49 0.410       9.15    0.150     79.00        1.414 0.95 1.00
           76     76   31620.89 0.283       9.15    0.150     79.00        1.927 0.95 1.00
           77     77   36662.36 0.264       9.15    0.150     79.00        1.500 0.95 1.00
           78     78   11846.82 0.677       9.15    0.100     70.00        0.652 0.95 1.00
           79     79   12399.12 0.169      18.29    0.150     79.00        1.279 0.95 1.00
           80     80   13641.39 0.275       9.15    0.150     79.00        1.270 0.95 1.00
           81     81   24197.16 0.303       9.15    0.150     79.00        1.681 0.95 1.00
           82     82   11554.94 0.047      91.46    0.100     73.00        1.822 0.95 1.00
           83     83   11818.50 0.179      18.29    0.150     79.00        1.673 0.95 1.00
           84     84   48206.29 0.266       9.15    0.150     79.00        2.603 0.95 1.00
           85     85   10633.66 0.607       9.15    0.100     70.00        0.643 0.95 1.00
           86     86   18783.56 0.304       9.15    0.150     84.00        1.280 0.95 1.00
           87     87   74150.02 0.297       9.15    0.150     79.00        2.822 0.95 1.00
           88     88   20273.66 0.336       9.15    0.150     84.00        1.734 0.95 1.00
           89     89   42726.60 0.214      15.24    0.150     79.00        2.909 0.95 1.00
           90     90   39662.22 0.322       9.15    0.150     79.00        2.733 0.95 1.00
           91     91   15334.47 0.066      60.98    0.150     69.00        2.593 0.95 1.00
           92     92   25807.63 0.204      15.24    0.150     79.00        1.853 0.95 1.00
           93     93   11551.00 0.599       9.15    0.100     70.00        0.830 0.95 1.00
           94     94   39369.55 0.354       9.15    0.150     79.00        1.958 0.95 1.00
           95     95   17417.77 0.210      15.24    0.150     79.00        1.456 0.95 1.00
           96     96   20710.30 0.309       9.15    0.150     79.00        1.666 0.95 1.00
           97     97   12489.59 0.509       9.15    0.100     77.00        1.178 0.95 1.00
           98     98   14550.08 0.593       9.15    0.100     70.00        0.939 0.95 1.00
           99     99   61921.63 0.197      18.29    0.150     79.00        4.412 0.95 1.00
          100    100   12179.61 0.288       9.15    0.150     79.00        1.038 0.95 1.00
          101    101   14478.49 0.218      15.24    0.150     79.00        1.389 0.95 1.00
          102    102    6123.24 0.386       9.15    0.150     79.00        0.739 0.95 1.00
          103    103   17364.27 0.636       9.15    0.100     70.00        1.164 0.95 1.00
          104    104   42524.41 0.347       9.15    0.150     84.00        1.666 0.95 1.00
          105    105    8470.89 0.435       9.15    0.150     79.00        0.792 0.95 1.00
          106    106   24296.29 0.297       9.15    0.150     84.00        1.966 0.95 1.00
          107    107   16936.28 0.653       9.15    0.100     70.00        0.908 0.95 1.00
          108    108    6848.62 0.745       9.15    0.100     70.00        0.544 0.95 1.00
          109    109   81975.78 0.293       9.15    0.150     79.00        3.334 0.95 1.00
          110    110   16105.48 0.288       9.15    0.150     79.00        1.230 0.95 1.00
          111    111   12196.92 0.289       9.15    0.150     84.00        1.001 0.95 1.00
          112    112   18446.83 0.606       9.15    0.150     84.00        0.755 0.95 1.00
          113    113   11853.90 0.364       9.15    0.150     84.00        1.019 0.95 1.00
          114    114    8150.69 0.192      18.29    0.150     79.00        1.383 0.95 1.00
          115    115   31140.19 0.267       9.15    0.150     79.00        1.600 0.95 1.00
          116    116   43610.12 0.355       9.15    0.150     84.00        2.105 0.95 1.00
          117    117   20645.79 0.725       9.15    0.100     70.00        0.828 0.95 1.00
          118    118   16584.60 0.621       9.15    0.100     77.00        0.938 0.95 1.00
          119    119    5072.15 0.302       9.15    0.150     79.00        0.747 0.95 1.00
          120    120   25565.31 0.307       9.15    0.150     79.00        2.335 0.95 1.00
          121    121   14665.73 0.257       9.15    0.150     84.00        1.099 0.95 1.00
          122    122    6795.91 0.428       9.15    0.150     84.00        0.705 0.95 1.00
          123    123    4874.68 0.695       9.15    0.100     70.00        0.550 0.95 1.00
          124    124    8581.04 0.102      60.98    0.150     79.00        1.161 0.95 1.00
          125    125    2527.03 0.473       9.15    0.150     84.00        0.522 0.95 1.00
          126    126   17332.01 0.297       9.15    0.150     79.00        1.492 0.95 1.00
          127    127   11879.86 0.194      18.29    0.150     79.00        1.188 0.95 1.00
          128    128  128269.49 0.499       9.15    0.150     84.00        5.544 0.95 1.00
          129    129   22720.44 0.355       9.15    0.150     84.00        1.308 0.95 1.00
          130    130   26189.20 0.251       9.15    0.150     84.00        3.073 0.95 1.00
          131    131   14943.45 0.441       9.15    0.150     84.00        1.571 0.95 1.00
          132    132    6124.82 0.620       9.15    0.100     79.00        0.483 0.95 1.00
          133    133   30920.69 0.381       9.15    0.150     79.00        1.800 0.95 1.00
          134    134   50053.57 0.577       9.15    0.150     84.00        2.064 0.95 1.00
          135    135   21416.01 0.337       9.15    0.150     84.00        1.795 0.95 1.00
          136    136   12114.31 0.336       9.15    0.150     84.00        1.252 0.95 1.00
          137    137   19723.72 0.672       9.15    0.100     79.00        1.084 0.95 1.00
          138    138   15087.43 0.317       9.15    0.150     84.00        1.444 0.95 1.00
          139    139   15414.71 0.264       9.15    0.150     84.00        1.276 0.95 1.00
          140    140   30855.39 0.381       9.15    0.150     84.00        1.645 0.95 1.00
          141    141   22135.10 0.329       9.15    0.150     79.00        1.098 0.95 1.00
          142    142   25887.09 0.711       9.15    0.100     70.00        1.049 0.95 1.00
          143    143   17862.28 0.423       9.15    0.150     79.00        1.002 0.95 1.00
          144    144   12259.86 0.166      18.29    0.150     84.00        1.346 0.95 1.00
          145    145   26857.15 0.640       9.15    0.100     70.00        1.343 0.95 1.00
          146    146    6183.82 0.133      24.39    0.140     87.00        1.447 0.95 1.00
          147    147   30746.82 0.135      24.39    0.150     79.00        1.854 0.95 1.00
          148    148   33858.40 0.639       9.15    0.100     79.00        1.440 0.95 1.00
          149    149   54715.04 0.703       9.15    0.100     70.00        1.858 0.95 1.00
          150    150   16173.14 0.562       9.15    0.100     77.00        0.820 0.95 1.00
          151    151   24009.13 0.728       9.15    0.100     70.00        0.967 0.95 1.00
          152    152   21701.60 0.649       9.15    0.100     70.00        1.224 0.95 1.00
          153    153    7710.90 0.588       9.15    0.100     70.00        0.904 0.95 1.00
          154    154   22088.68 0.342       9.15    0.100     70.00        1.195 0.95 1.00

         HRU CN Input Summary Table:
          Sub   HRU   Area(ha)  LULC      Soil    CN1    CN2    CN3  Wilting Point (mm H2O)  Field Capacity (mm H2O)  Saturation (mm H2O)
            1      1   28517.97  AGRL  Th8-a-56   59.3   77.0   89.9                    68.5                    190.0                629.6
            2      2   20986.45  AGRL  I-Bh-Tv-   67.0   83.0   93.1                    87.5                    120.0                508.7
            3      3   15216.45  PAST  I-Bh-Tv-   61.7   79.0   91.0                    87.5                    120.0                508.7
            4      4   30555.64  FRSE  I-Bd-c-5   51.2   70.0   85.7                   115.0                    100.0                454.9
            5      5   33168.42  FRSE  I-Hl-Kl-   59.3   77.0   89.9                   149.6                    120.0                333.5
            6      6   16761.62  PAST  I-Bh-Tv-   61.7   79.0   91.0                    87.5                    120.0                508.7
            7      7   10036.52  PAST  Tv5-b-56   61.7   79.0   91.0                    61.6                    140.0                523.3
            8      8   42490.58  PAST  I-Bh-Tv-   61.7   79.0   91.0                    87.5                    120.0                508.7
            9      9   18617.56  PAST  Th8-a-56   50.1   69.0   85.0                    68.5                    190.0                629.6
           10     10   37816.52  AGRL  I-To-c-5   67.0   83.0   93.1                   127.8                    110.0                430.7
           11     11   33336.79  PAST  I-Hl-Kl-   68.4   84.0   93.5                   149.6                    120.0                333.5
           12     12   18719.83  FRSE  I-Bd-c-5   51.2   70.0   85.7                   115.0                    100.0                454.9
           13     13   63209.53  PAST  I-Bh-Tv-   61.7   79.0   91.0                    87.5                    120.0                508.7
           14     14   21341.27  PAST  I-Bh-Tv-   61.7   79.0   91.0                    87.5                    120.0                508.7
           15     15   28248.90  AGRL  I-Bh-Tv-   67.0   83.0   93.1                    87.5                    120.0                508.7
           16     16   11055.35  PAST  I-Bh-Tv-   61.7   79.0   91.0                    87.5                    120.0                508.7
           17     17   28844.47  PAST  I-Hl-Kl-   68.4   84.0   93.5                   149.6                    120.0                333.5
           18     18   24250.66  PAST  I-Hl-Kl-   68.4   84.0   93.5                   149.6                    120.0                333.5
           19     19   10668.28  PAST  I-Bh-Tv-   61.7   79.0   91.0                    87.5                    120.0                508.7
           20     20   10356.72  PAST  Tv5-b-56   61.7   79.0   91.0                    61.6                    140.0                523.3
           21     21   16889.08  PAST  Th8-a-56   50.1   69.0   85.0                    68.5                    190.0                629.6
           22     22   20623.76  PAST  I-Bh-Tv-   61.7   79.0   91.0                    87.5                    120.0                508.7
           23     23   36939.30  PAST  I-Bh-Tv-   61.7   79.0   91.0                    87.5                    120.0                508.7
           24     24   10297.72  PAST  I-Hl-Kl-   68.4   84.0   93.5                   149.6                    120.0                333.5
           25     25   23918.65  PAST  I-Bh-Tv-   61.7   79.0   91.0                    87.5                    120.0                508.7
           26     26   14933.23  PAST  I-Hl-Kl-   68.4   84.0   93.5                   149.6                    120.0                333.5
           27     27   13251.95  AGRL  I-To-c-5   67.0   83.0   93.1                   127.8                    110.0                430.7
           28     28   12694.15  PAST  I-To-c-5   61.7   79.0   91.0                   127.8                    110.0                430.7
           29     29   14324.28  PAST  I-Bh-Tv-   61.7   79.0   91.0                    87.5                    120.0                508.7
           30     30   13583.17  FRSE  I-Bd-c-5   51.2   70.0   85.7                   115.0                    100.0                454.9
           31     31   18577.43  PAST  I-Bh-Tv-   61.7   79.0   91.0                    87.5                    120.0                508.7
           32     32   10396.85  PAST  GLACIER-   68.4   84.0   93.5                    61.0                     15.2                312.9
           33     33   12178.83  AGRL  WATER-69   73.0   87.0   95.0                     0.1                      0.2                 12.6
           34     34   30772.78  PAST  I-To-c-5   61.7   79.0   91.0                   127.8                    110.0                430.7
           35     35   23386.81  PAST  I-Hl-Kl-   68.4   84.0   93.5                   149.6                    120.0                333.5
           36     36   40607.89  PAST  I-Bh-Tv-   61.7   79.0   91.0                    87.5                    120.0                508.7
           37     37   17763.15  PAST  I-Bh-Tv-   61.7   79.0   91.0                    87.5                    120.0                508.7
           38     38   17711.23  PAST  GLACIER-   68.4   84.0   93.5                    61.0                     15.2                312.9
           39     39   25701.42  AGRL  I-Bh-Tv-   67.0   83.0   93.1                    87.5                    120.0                508.7
           40     40   15666.47  PAST  I-Bh-Tv-   61.7   79.0   91.0                    87.5                    120.0                508.7
           41     41   23714.10  FRSE  I-Bd-c-5   51.2   70.0   85.7                   115.0                    100.0                454.9
           42     42   24007.55  PAST  I-Bh-Tv-   61.7   79.0   91.0                    87.5                    120.0                508.7
           43     43   18109.32  PAST  I-Bh-Tv-   61.7   79.0   91.0                    87.5                    120.0                508.7
           44     44   33961.46  PAST  GLACIER-   68.4   84.0   93.5                    61.0                     15.2                312.9
           45     45   22280.65  AGRL  I-Bh-Tv-   67.0   83.0   93.1                    87.5                    120.0                508.7
           46     46   15955.99  PAST  I-Bh-Tv-   61.7   79.0   91.0                    87.5                    120.0                508.7
           47     47   22896.67  PAST  I-Bh-Tv-   61.7   79.0   91.0                    87.5                    120.0                508.7
           48     48   35949.57  PAST  I-Bh-Tv-   61.7   79.0   91.0                    87.5                    120.0                508.7
           49     49   14588.63  PAST  I-Hl-Kl-   68.4   84.0   93.5                   149.6                    120.0                333.5
           50     50   17416.98  PAST  GLACIER-   68.4   84.0   93.5                    61.0                     15.2                312.9
           51     51   40800.65  PAST  Th8-a-56   50.1   69.0   85.0                    68.5                    190.0                629.6
           52     52   18070.77  FRST  I-Bh-Tv-   54.5   73.0   87.5                    87.5                    120.0                508.7
           53     53   11582.47  FRSE  I-Bd-c-5   51.2   70.0   85.7                   115.0                    100.0                454.9
           54     54   16153.47  FRSE  I-Bh-Tv-   51.2   70.0   85.7                    87.5                    120.0                508.7
           55     55   18542.03  PAST  I-Bh-Tv-   61.7   79.0   91.0                    87.5                    120.0                508.7
           56     56   14568.18  PAST  GLACIER-   68.4   84.0   93.5                    61.0                     15.2                312.9
           57     57   14745.19  PAST  I-Bh-Tv-   61.7   79.0   91.0                    87.5                    120.0                508.7
           58     58   16926.05  PAST  I-Hl-Kl-   68.4   84.0   93.5                   149.6                    120.0                333.5
           59     59   25925.64  FRSE  I-Hl-Kl-   59.3   77.0   89.9                   149.6                    120.0                333.5
           60     60   15649.95  PAST  I-Hl-Kl-   68.4   84.0   93.5                   149.6                    120.0                333.5
           61     61   12083.63  PAST  Tv5-b-56   61.7   79.0   91.0                    61.6                    140.0                523.3
           62     62   12606.03  AGRL  Th8-a-56   59.3   77.0   89.9                    68.5                    190.0                629.6
           63     63   26953.13  PAST  I-Bh-Tv-   61.7   79.0   91.0                    87.5                    120.0                508.7
           64     64   19570.31  PAST  I-Hl-Kl-   68.4   84.0   93.5                   149.6                    120.0                333.5
           65     65   13003.34  FRSE  I-Bd-c-5   51.2   70.0   85.7                   115.0                    100.0                454.9
           66     66   16010.28  PAST  I-Bh-Tv-   61.7   79.0   91.0                    87.5                    120.0                508.7
           67     67   24378.11  PAST  GLACIER-   68.4   84.0   93.5                    61.0                     15.2                312.9
           68     68   36748.90  FRSE  I-Hl-Kl-   59.3   77.0   89.9                   149.6                    120.0                333.5
           69     69   13270.04  PAST  I-Hl-Kl-   68.4   84.0   93.5                   149.6                    120.0                333.5
           70     70   10698.96  PAST  I-Hl-Kl-   68.4   84.0   93.5                   149.6                    120.0                333.5
           71     71   15811.23  PAST  GLACIER-   68.4   84.0   93.5                    61.0                     15.2                312.9
           72     72   17412.26  WATR  WATER-69   81.7   92.0   97.1                     0.1                      0.2                 12.6
           73     73   12493.53  PAST  I-Bh-Tv-   61.7   79.0   91.0                    87.5                    120.0                508.7
           74     74   30285.79  PAST  I-Hl-Kl-   68.4   84.0   93.5                   149.6                    120.0                333.5
           75     75   26409.49  PAST  I-Bh-Tv-   61.7   79.0   91.0                    87.5                    120.0                508.7
           76     76   31620.89  PAST  I-Bh-Tv-   61.7   79.0   91.0                    87.5                    120.0                508.7
           77     77   36662.36  PAST  Tv5-b-56   61.7   79.0   91.0                    61.6                    140.0                523.3
           78     78   11846.82  FRSE  I-Bd-c-5   51.2   70.0   85.7                   115.0                    100.0                454.9
           79     79   12399.12  PAST  I-Bh-Tv-   61.7   79.0   91.0                    87.5                    120.0                508.7
           80     80   13641.39  PAST  I-Bh-Tv-   61.7   79.0   91.0                    87.5                    120.0                508.7
           81     81   24197.16  PAST  I-Bh-Tv-   61.7   79.0   91.0                    87.5                    120.0                508.7
           82     82   11554.94  FRST  I-To-c-5   54.5   73.0   87.5                   127.8                    110.0                430.7
           83     83   11818.50  PAST  I-To-c-5   61.7   79.0   91.0                   127.8                    110.0                430.7
           84     84   48206.29  PAST  I-Bh-Tv-   61.7   79.0   91.0                    87.5                    120.0                508.7
           85     85   10633.66  FRSE  I-Bd-c-5   51.2   70.0   85.7                   115.0                    100.0                454.9
           86     86   18783.56  PAST  GLACIER-   68.4   84.0   93.5                    61.0                     15.2                312.9
           87     87   74150.02  PAST  I-Bh-Tv-   61.7   79.0   91.0                    87.5                    120.0                508.7
           88     88   20273.66  PAST  I-Hl-Kl-   68.4   84.0   93.5                   149.6                    120.0                333.5
           89     89   42726.60  PAST  I-Bh-Tv-   61.7   79.0   91.0                    87.5                    120.0                508.7
           90     90   39662.22  PAST  I-Bh-Tv-   61.7   79.0   91.0                    87.5                    120.0                508.7
           91     91   15334.47  PAST  Th8-a-56   50.1   69.0   85.0                    68.5                    190.0                629.6
           92     92   25807.63  PAST  I-Bh-Tv-   61.7   79.0   91.0                    87.5                    120.0                508.7
           93     93   11551.00  FRSE  I-Bd-c-5   51.2   70.0   85.7                   115.0                    100.0                454.9
           94     94   39369.55  PAST  I-Bh-Tv-   61.7   79.0   91.0                    87.5                    120.0                508.7
           95     95   17417.77  PAST  Tv5-b-56   61.7   79.0   91.0                    61.6                    140.0                523.3
           96     96   20710.30  PAST  I-To-c-5   61.7   79.0   91.0                   127.8                    110.0                430.7
           97     97   12489.59  FRSE  I-Hl-Kl-   59.3   77.0   89.9                   149.6                    120.0                333.5
           98     98   14550.08  FRSE  I-Bd-c-5   51.2   70.0   85.7                   115.0                    100.0                454.9
           99     99   61921.63  PAST  I-To-c-5   61.7   79.0   91.0                   127.8                    110.0                430.7
          100    100   12179.61  PAST  I-Bh-Tv-   61.7   79.0   91.0                    87.5                    120.0                508.7
          101    101   14478.49  PAST  I-Bh-Tv-   61.7   79.0   91.0                    87.5                    120.0                508.7
          102    102    6123.24  PAST  I-Bh-Tv-   61.7   79.0   91.0                    87.5                    120.0                508.7
          103    103   17364.27  FRSE  I-Bd-c-5   51.2   70.0   85.7                   115.0                    100.0                454.9
          104    104   42524.41  PAST  I-Hl-Kl-   68.4   84.0   93.5                   149.6                    120.0                333.5
          105    105    8470.89  PAST  I-Bh-Tv-   61.7   79.0   91.0                    87.5                    120.0                508.7
          106    106   24296.29  PAST  I-Hl-Kl-   68.4   84.0   93.5                   149.6                    120.0                333.5
          107    107   16936.28  FRSE  I-Bd-c-5   51.2   70.0   85.7                   115.0                    100.0                454.9
          108    108    6848.62  FRSE  I-Bd-c-5   51.2   70.0   85.7                   115.0                    100.0                454.9
          109    109   81975.78  PAST  I-Bh-Tv-   61.7   79.0   91.0                    87.5                    120.0                508.7
          110    110   16105.48  PAST  Tv5-b-56   61.7   79.0   91.0                    61.6                    140.0                523.3
          111    111   12196.92  PAST  I-Hl-Kl-   68.4   84.0   93.5                   149.6                    120.0                333.5
          112    112   18446.83  PAST  I-Hl-Kl-   68.4   84.0   93.5                   149.6                    120.0                333.5
          113    113   11853.90  PAST  GLACIER-   68.4   84.0   93.5                    61.0                     15.2                312.9
          114    114    8150.69  PAST  I-Bh-Tv-   61.7   79.0   91.0                    87.5                    120.0                508.7
          115    115   31140.19  PAST  I-Bh-Tv-   61.7   79.0   91.0                    87.5                    120.0                508.7
          116    116   43610.12  PAST  I-Hl-Kl-   68.4   84.0   93.5                   149.6                    120.0                333.5
          117    117   20645.79  FRSE  I-Bd-c-5   51.2   70.0   85.7                   115.0                    100.0                454.9
          118    118   16584.60  FRSE  I-Hl-Kl-   59.3   77.0   89.9                   149.6                    120.0                333.5
          119    119    5072.15  PAST  Tv5-b-56   61.7   79.0   91.0                    61.6                    140.0                523.3
          120    120   25565.31  PAST  Tv5-b-56   61.7   79.0   91.0                    61.6                    140.0                523.3
          121    121   14665.73  PAST  I-Hl-Kl-   68.4   84.0   93.5                   149.6                    120.0                333.5
          122    122    6795.91  PAST  I-Hl-Kl-   68.4   84.0   93.5                   149.6                    120.0                333.5
          123    123    4874.68  FRSE  I-Bd-c-5   51.2   70.0   85.7                   115.0                    100.0                454.9
          124    124    8581.04  PAST  I-Bh-Tv-   61.7   79.0   91.0                    87.5                    120.0                508.7
          125    125    2527.03  PAST  I-Hl-Kl-   68.4   84.0   93.5                   149.6                    120.0                333.5
          126    126   17332.01  PAST  I-Bh-Tv-   61.7   79.0   91.0                    87.5                    120.0                508.7
          127    127   11879.86  PAST  I-Bh-Tv-   61.7   79.0   91.0                    87.5                    120.0                508.7
          128    128  128269.49  PAST  I-Hl-Kl-   68.4   84.0   93.5                   149.6                    120.0                333.5
          129    129   22720.44  PAST  I-Hl-Kl-   68.4   84.0   93.5                   149.6                    120.0                333.5
          130    130   26189.20  PAST  I-Hl-Kl-   68.4   84.0   93.5                   149.6                    120.0                333.5
          131    131   14943.45  PAST  I-Hl-Kl-   68.4   84.0   93.5                   149.6                    120.0                333.5
          132    132    6124.82  FRST  I-Hl-Kl-   61.7   79.0   91.0                   149.6                    120.0                333.5
          133    133   30920.69  PAST  Tv5-b-56   61.7   79.0   91.0                    61.6                    140.0                523.3
          134    134   50053.57  PAST  I-Hl-Kl-   68.4   84.0   93.5                   149.6                    120.0                333.5
          135    135   21416.01  PAST  I-Hl-Kl-   68.4   84.0   93.5                   149.6                    120.0                333.5
          136    136   12114.31  PAST  I-Hl-Kl-   68.4   84.0   93.5                   149.6                    120.0                333.5
          137    137   19723.72  FRST  I-Hl-Kl-   61.7   79.0   91.0                   149.6                    120.0                333.5
          138    138   15087.43  PAST  I-Hl-Kl-   68.4   84.0   93.5                   149.6                    120.0                333.5
          139    139   15414.71  PAST  I-Hl-Kl-   68.4   84.0   93.5                   149.6                    120.0                333.5
          140    140   30855.39  PAST  I-Hl-Kl-   68.4   84.0   93.5                   149.6                    120.0                333.5
          141    141   22135.10  PAST  Tv5-b-56   61.7   79.0   91.0                    61.6                    140.0                523.3
          142    142   25887.09  FRSE  I-Bh-Tv-   51.2   70.0   85.7                    87.5                    120.0                508.7
          143    143   17862.28  PAST  Tv5-b-56   61.7   79.0   91.0                    61.6                    140.0                523.3
          144    144   12259.86  PAST  I-Hl-Kl-   68.4   84.0   93.5                   149.6                    120.0                333.5
          145    145   26857.15  FRSE  I-Bh-Tv-   51.2   70.0   85.7                    87.5                    120.0                508.7
          146    146    6183.82  AGRL  I-Hl-Kl-   73.0   87.0   95.0                   149.6                    120.0                333.5
          147    147   30746.82  PAST  Kk1-3a-5   61.7   79.0   91.0                   189.2                    180.0                369.3
          148    148   33858.40  FRST  I-Hl-Kl-   61.7   79.0   91.0                   149.6                    120.0                333.5
          149    149   54715.04  FRSE  I-Bd-c-5   51.2   70.0   85.7                   115.0                    100.0                454.9
          150    150   16173.14  FRSE  I-Hl-Kl-   59.3   77.0   89.9                   149.6                    120.0                333.5
          151    151   24009.13  FRSE  I-Bd-c-5   51.2   70.0   85.7                   115.0                    100.0                454.9
          152    152   21701.60  FRSE  I-Bd-c-5   51.2   70.0   85.7                   115.0                    100.0                454.9
          153    153    7710.90  FRSE  I-Bd-c-5   51.2   70.0   85.7                   115.0                    100.0                454.9
          154    154   22088.68  FRSE  I-Bd-c-5   51.2   70.0   85.7                   115.0                    100.0                454.9

         HRU Input Summary Table 2:
          Sub   HRU   Area(ha)         SoilName Hydgrp MaxRtDpth(mm) Albedo USLE_K USLE_P USLE_LS ProfileAWC(mm) IniSoilH2O(mm)
            1      1   28517.97 Th8-a-5672         B          1000.00   0.10   0.15   1.00    1.70    190.000         87.783
            2      2   20986.45 I-Bh-Tv-c-5518     C           670.00   0.10   0.27   1.00    1.85    120.000         15.758
            3      3   15216.45 I-Bh-Tv-c-5518     C           670.00   0.10   0.27   1.00    3.08    120.000         96.856
            4      4   30555.64 I-Bd-c-5513        C           550.00   0.10   0.25   1.00   11.34    100.000        100.000
            5      5   33168.42 I-Hl-Kl-b-5527     D           690.00   0.10   0.28   1.00    9.84    120.000        114.150
            6      6   16761.62 I-Bh-Tv-c-5518     C           670.00   0.10   0.27   1.00   10.06    120.000          2.810
            7      7   10036.52 Tv5-b-5682         C           810.00   0.10   0.24   1.00    5.15    140.000         98.420
            8      8   42490.58 I-Bh-Tv-c-5518     C           670.00   0.10   0.27   1.00    4.01    120.000         23.947
            9      9   18617.56 Th8-a-5672         B          1000.00   0.10   0.15   1.00    2.31    190.000        164.108
           10     10   37816.52 I-To-c-5541        C           520.00   0.10   0.24   1.00    2.62    110.000         15.443
           11     11   33336.79 I-Hl-Kl-b-5527     D           690.00   0.10   0.28   1.00    2.92    120.000          7.331
           12     12   18719.83 I-Bd-c-5513        C           550.00   0.10   0.25   1.00   11.02    100.000         77.398
           13     13   63209.53 I-Bh-Tv-c-5518     C           670.00   0.10   0.27   1.00    3.50    120.000         44.019
           14     14   21341.27 I-Bh-Tv-c-5518     C           670.00   0.10   0.27   1.00    3.05    120.000         71.742
           15     15   28248.90 I-Bh-Tv-c-5518     C           670.00   0.10   0.27   1.00    3.00    120.000         15.758
           16     16   11055.35 I-Bh-Tv-c-5518     C           670.00   0.10   0.27   1.00    3.50    120.000        108.913
           17     17   28844.47 I-Hl-Kl-b-5527     D           690.00   0.10   0.28   1.00    3.62    120.000          7.331
           18     18   24250.66 I-Hl-Kl-b-5527     D           690.00   0.10   0.28   1.00    3.37    120.000        114.150
           19     19   10668.28 I-Bh-Tv-c-5518     C           670.00   0.10   0.27   1.00    9.58    120.000          5.111
           20     20   10356.72 Tv5-b-5682         C           810.00   0.10   0.24   1.00    3.54    140.000         98.420
           21     21   16889.08 Th8-a-5672         B          1000.00   0.10   0.15   1.00    1.76    190.000         87.783
           22     22   20623.76 I-Bh-Tv-c-5518     C           670.00   0.10   0.27   1.00    3.27    120.000        118.134
           23     23   36939.30 I-Bh-Tv-c-5518     C           670.00   0.10   0.27   1.00    4.82    120.000        113.133
           24     24   10297.72 I-Hl-Kl-b-5527     D           690.00   0.10   0.28   1.00    2.85    120.000         10.446
           25     25   23918.65 I-Bh-Tv-c-5518     C           670.00   0.10   0.27   1.00    4.43    120.000          6.308
           26     26   14933.23 I-Hl-Kl-b-5527     D           690.00   0.10   0.28   1.00    4.27    120.000         28.689
           27     27   13251.95 I-To-c-5541        C           520.00   0.10   0.24   1.00    1.05    110.000         50.822
           28     28   12694.15 I-To-c-5541        C           520.00   0.10   0.24   1.00    3.27    110.000         10.312
           29     29   14324.28 I-Bh-Tv-c-5518     C           670.00   0.10   0.27   1.00    4.52    120.000         25.592
           30     30   13583.17 I-Bd-c-5513        C           550.00   0.10   0.25   1.00   11.90    100.000          2.358
           31     31   18577.43 I-Bh-Tv-c-5518     C           670.00   0.10   0.27   1.00    4.75    120.000          6.308
           32     32   10396.85 GLACIER-6998       D          1524.00   0.23   0.01   1.00    5.53     15.240          3.644
           33     33   12178.83 WATER-6997         D            25.40   0.23   0.00   1.00    2.63      0.250          0.216
           34     34   30772.78 I-To-c-5541        C           520.00   0.10   0.24   1.00    3.80    110.000         10.312
           35     35   23386.81 I-Hl-Kl-b-5527     D           690.00   0.10   0.28   1.00    4.14    120.000         90.776
           36     36   40607.89 I-Bh-Tv-c-5518     C           670.00   0.10   0.27   1.00    3.15    120.000         39.764
           37     37   17763.15 I-Bh-Tv-c-5518     C           670.00   0.10   0.27   1.00    2.22    120.000        104.246
           38     38   17711.23 GLACIER-6998       D          1524.00   0.23   0.01   1.00    4.55     15.240          9.111
           39     39   25701.42 I-Bh-Tv-c-5518     C           670.00   0.10   0.27   1.00    2.34    120.000         96.856
           40     40   15666.47 I-Bh-Tv-c-5518     C           670.00   0.10   0.27   1.00    3.05    120.000        108.913
           41     41   23714.10 I-Bd-c-5513        C           550.00   0.10   0.25   1.00   11.61    100.000        100.000
           42     42   24007.55 I-Bh-Tv-c-5518     C           670.00   0.10   0.27   1.00    2.22    120.000         10.446
           43     43   18109.32 I-Bh-Tv-c-5518     C           670.00   0.10   0.27   1.00    4.05    120.000         44.019
           44     44   33961.46 GLACIER-6998       D          1524.00   0.23   0.01   1.00    5.85     15.240          9.111
           45     45   22280.65 I-Bh-Tv-c-5518     C           670.00   0.10   0.27   1.00    2.29    120.000         96.856
           46     46   15955.99 I-Bh-Tv-c-5518     C           670.00   0.10   0.27   1.00    3.77    120.000        108.913
           47     47   22896.67 I-Bh-Tv-c-5518     C           670.00   0.10   0.27   1.00    3.29    120.000         25.592
           48     48   35949.57 I-Bh-Tv-c-5518     C           670.00   0.10   0.27   1.00    7.08    120.000          5.443
           49     49   14588.63 I-Hl-Kl-b-5527     D           690.00   0.10   0.28   1.00    3.70    120.000          2.810
           50     50   17416.98 GLACIER-6998       D          1524.00   0.23   0.01   1.00    3.94     15.240          4.191
           51     51   40800.65 Th8-a-5672         B          1000.00   0.10   0.15   1.00    2.07    190.000         26.674
           52     52   18070.77 I-Bh-Tv-c-5518     C           670.00   0.10   0.27   1.00    4.50    120.000        108.913
           53     53   11582.47 I-Bd-c-5513        C           550.00   0.10   0.25   1.00   11.82    100.000        100.000
           54     54   16153.47 I-Bh-Tv-c-5518     C           670.00   0.10   0.27   1.00   11.66    120.000          5.443
           55     55   18542.03 I-Bh-Tv-c-5518     C           670.00   0.10   0.27   1.00    3.02    120.000         44.019
           56     56   14568.18 GLACIER-6998       D          1524.00   0.23   0.01   1.00    3.58     15.240          9.892
           57     57   14745.19 I-Bh-Tv-c-5518     C           670.00   0.10   0.27   1.00    3.37    120.000        113.133
           58     58   16926.05 I-Hl-Kl-b-5527     D           690.00   0.10   0.28   1.00    3.05    120.000         90.776
           59     59   25925.64 I-Hl-Kl-b-5527     D           690.00   0.10   0.28   1.00   11.93    120.000          2.829
           60     60   15649.95 I-Hl-Kl-b-5527     D           690.00   0.10   0.28   1.00    9.20    120.000         30.603
           61     61   12083.63 Tv5-b-5682         C           810.00   0.10   0.24   1.00    4.52    140.000         38.502
           62     62   12606.03 Th8-a-5672         B          1000.00   0.10   0.15   1.00    1.25    190.000         87.783
           63     63   26953.13 I-Bh-Tv-c-5518     C           670.00   0.10   0.27   1.00    2.96    120.000        108.913
           64     64   19570.31 I-Hl-Kl-b-5527     D           690.00   0.10   0.28   1.00    3.07    120.000         25.592
           65     65   13003.34 I-Bd-c-5513        C           550.00   0.10   0.25   1.00   11.29    100.000          7.013
           66     66   16010.28 I-Bh-Tv-c-5518     C           670.00   0.10   0.27   1.00    3.21    120.000          2.810
           67     67   24378.11 GLACIER-6998       D          1524.00   0.23   0.01   1.00    4.25     15.240          9.892
           68     68   36748.90 I-Hl-Kl-b-5527     D           690.00   0.10   0.28   1.00   10.94    120.000        114.150
           69     69   13270.04 I-Hl-Kl-b-5527     D           690.00   0.10   0.28   1.00   10.27    120.000          3.853
           70     70   10698.96 I-Hl-Kl-b-5527     D           690.00   0.10   0.28   1.00    3.32    120.000         28.689
           71     71   15811.23 GLACIER-6998       D          1524.00   0.23   0.01   1.00    3.99     15.240          9.892
           72     72   17412.26 WATER-6997         D            25.40   0.23   0.00   1.00    1.03      0.250          0.176
           73     73   12493.53 I-Bh-Tv-c-5518     C           670.00   0.10   0.27   1.00    3.78    120.000         84.484
           74     74   30285.79 I-Hl-Kl-b-5527     D           690.00   0.10   0.28   1.00    3.42    120.000         42.361
           75     75   26409.49 I-Bh-Tv-c-5518     C           670.00   0.10   0.27   1.00    6.60    120.000          5.443
           76     76   31620.89 I-Bh-Tv-c-5518     C           670.00   0.10   0.27   1.00    3.62    120.000         44.019
           77     77   36662.36 Tv5-b-5682         C           810.00   0.10   0.24   1.00    3.23    140.000         24.398
           78     78   11846.82 I-Bd-c-5513        C           550.00   0.10   0.25   1.00   13.64    100.000         77.398
           79     79   12399.12 I-Bh-Tv-c-5518     C           670.00   0.10   0.27   1.00    2.36    120.000         10.446
           80     80   13641.39 I-Bh-Tv-c-5518     C           670.00   0.10   0.27   1.00    3.46    120.000        114.071
           81     81   24197.16 I-Bh-Tv-c-5518     C           670.00   0.10   0.27   1.00    4.05    120.000         33.002
           82     82   11554.94 I-To-c-5541        C           520.00   0.10   0.24   1.00    0.85    110.000         77.443
           83     83   11818.50 I-To-c-5541        C           520.00   0.10   0.24   1.00    2.59    110.000         99.837
           84     84   48206.29 I-Bh-Tv-c-5518     C           670.00   0.10   0.27   1.00    3.27    120.000         54.520
           85     85   10633.66 I-Bd-c-5513        C           550.00   0.10   0.25   1.00   11.80    100.000          2.358
           86     86   18783.56 GLACIER-6998       D          1524.00   0.23   0.01   1.00    4.08     15.240          9.111
           87     87   74150.02 I-Bh-Tv-c-5518     C           670.00   0.10   0.27   1.00    3.92    120.000         20.912
           88     88   20273.66 I-Hl-Kl-b-5527     D           690.00   0.10   0.28   1.00    4.80    120.000        114.150
           89     89   42726.60 I-Bh-Tv-c-5518     C           670.00   0.10   0.27   1.00    3.11    120.000         39.764
           90     90   39662.22 I-Bh-Tv-c-5518     C           670.00   0.10   0.27   1.00    4.48    120.000         77.890
           91     91   15334.47 Th8-a-5672         B          1000.00   0.10   0.15   1.00    1.13    190.000         87.783
           92     92   25807.63 I-Bh-Tv-c-5518     C           670.00   0.10   0.27   1.00    2.87    120.000         16.581
           93     93   11551.00 I-Bd-c-5513        C           550.00   0.10   0.25   1.00   11.58    100.000          4.259
           94     94   39369.55 I-Bh-Tv-c-5518     C           670.00   0.10   0.27   1.00    5.22    120.000         44.019
           95     95   17417.77 Tv5-b-5682         C           810.00   0.10   0.24   1.00    3.01    140.000         38.502
           96     96   20710.30 I-To-c-5541        C           520.00   0.10   0.24   1.00    4.19    110.000         10.312
           97     97   12489.59 I-Hl-Kl-b-5527     D           690.00   0.10   0.28   1.00    9.18    120.000        114.150
           98     98   14550.08 I-Bd-c-5513        C           550.00   0.10   0.25   1.00   11.42    100.000          4.259
           99     99   61921.63 I-To-c-5541        C           520.00   0.10   0.24   1.00    3.02    110.000         77.443
          100    100   12179.61 I-Bh-Tv-c-5518     C           670.00   0.10   0.27   1.00    3.73    120.000         11.250
          101    101   14478.49 I-Bh-Tv-c-5518     C           670.00   0.10   0.27   1.00    3.20    120.000         16.581
          102    102    6123.24 I-Bh-Tv-c-5518     C           670.00   0.10   0.27   1.00    6.00    120.000         44.019
          103    103   17364.27 I-Bd-c-5513        C           550.00   0.10   0.25   1.00   12.57    100.000          2.358
          104    104   42524.41 I-Hl-Kl-b-5527     D           690.00   0.10   0.28   1.00    5.06    120.000         44.019
          105    105    8470.89 I-Bh-Tv-c-5518     C           670.00   0.10   0.27   1.00    7.23    120.000         28.689
          106    106   24296.29 I-Hl-Kl-b-5527     D           690.00   0.10   0.28   1.00    3.92    120.000         25.592
          107    107   16936.28 I-Bd-c-5513        C           550.00   0.10   0.25   1.00   13.01    100.000        100.000
          108    108    6848.62 I-Bd-c-5513        C           550.00   0.10   0.25   1.00   15.38    100.000          4.689
          109    109   81975.78 I-Bh-Tv-c-5518     C           670.00   0.10   0.27   1.00    3.84    120.000          6.308
          110    110   16105.48 Tv5-b-5682         C           810.00   0.10   0.24   1.00    3.73    140.000         98.420
          111    111   12196.92 I-Hl-Kl-b-5527     D           690.00   0.10   0.28   1.00    3.75    120.000         25.592
          112    112   18446.83 I-Hl-Kl-b-5527     D           690.00   0.10   0.28   1.00   11.77    120.000          3.853
          113    113   11853.90 GLACIER-6998       D          1524.00   0.23   0.01   1.00    5.46     15.240          9.111
          114    114    8150.69 I-Bh-Tv-c-5518     C           670.00   0.10   0.27   1.00    2.90    120.000         16.581
          115    115   31140.19 I-Bh-Tv-c-5518     C           670.00   0.10   0.27   1.00    3.29    120.000         42.361
          116    116   43610.12 I-Hl-Kl-b-5527     D           690.00   0.10   0.28   1.00    5.24    120.000         28.689
          117    117   20645.79 I-Bd-c-5513        C           550.00   0.10   0.25   1.00   14.88    100.000        100.000
          118    118   16584.60 I-Hl-Kl-b-5527     D           690.00   0.10   0.28   1.00   12.17    120.000         92.878
          119    119    5072.15 Tv5-b-5682         C           810.00   0.10   0.24   1.00    4.03    140.000         48.723
          120    120   25565.31 Tv5-b-5682         C           810.00   0.10   0.24   1.00    4.14    140.000         38.502
          121    121   14665.73 I-Hl-Kl-b-5527     D           690.00   0.10   0.28   1.00    3.09    120.000          7.331
          122    122    6795.91 I-Hl-Kl-b-5527     D           690.00   0.10   0.28   1.00    7.05    120.000          6.308
          123    123    4874.68 I-Bd-c-5513        C           550.00   0.10   0.25   1.00   14.11    100.000         77.398
          124    124    8581.04 I-Bh-Tv-c-5518     C           670.00   0.10   0.27   1.00    2.17    120.000         42.361
          125    125    2527.03 I-Hl-Kl-b-5527     D           690.00   0.10   0.28   1.00    8.22    120.000          6.308
          126    126   17332.01 I-Bh-Tv-c-5518     C           670.00   0.10   0.27   1.00    3.92    120.000         25.592
          127    127   11879.86 I-Bh-Tv-c-5518     C           670.00   0.10   0.27   1.00    2.95    120.000         42.361
          128    128  128269.49 I-Hl-Kl-b-5527     D           690.00   0.10   0.28   1.00    8.91    120.000          2.810
          129    129   22720.44 I-Hl-Kl-b-5527     D           690.00   0.10   0.28   1.00    5.24    120.000         28.689
          130    130   26189.20 I-Hl-Kl-b-5527     D           690.00   0.10   0.28   1.00    2.97    120.000         42.361
          131    131   14943.45 I-Hl-Kl-b-5527     D           690.00   0.10   0.28   1.00    7.39    120.000         10.446
          132    132    6124.82 I-Hl-Kl-b-5527     D           690.00   0.10   0.28   1.00   12.14    120.000         41.763
          133    133   30920.69 Tv5-b-5682         C           810.00   0.10   0.24   1.00    5.87    140.000         48.723
          134    134   50053.57 I-Hl-Kl-b-5527     D           690.00   0.10   0.28   1.00   10.99    120.000          5.111
          135    135   21416.01 I-Hl-Kl-b-5527     D           690.00   0.10   0.28   1.00    4.82    120.000          7.331
          136    136   12114.31 I-Hl-Kl-b-5527     D           690.00   0.10   0.28   1.00    4.80    120.000         10.446
          137    137   19723.72 I-Hl-Kl-b-5527     D           690.00   0.10   0.28   1.00   13.51    120.000          2.829
          138    138   15087.43 I-Hl-Kl-b-5527     D           690.00   0.10   0.28   1.00    4.36    120.000          7.331
          139    139   15414.71 I-Hl-Kl-b-5527     D           690.00   0.10   0.28   1.00    3.23    120.000          7.331
          140    140   30855.39 I-Hl-Kl-b-5527     D           690.00   0.10   0.28   1.00    5.87    120.000          5.443
          141    141   22135.10 Tv5-b-5682         C           810.00   0.10   0.24   1.00    4.64    140.000         48.723
          142    142   25887.09 I-Bh-Tv-c-5518     C           670.00   0.10   0.27   1.00   14.52    120.000          3.853
          143    143   17862.28 Tv5-b-5682         C           810.00   0.10   0.24   1.00    6.93    140.000         48.723
          144    144   12259.86 I-Hl-Kl-b-5527     D           690.00   0.10   0.28   1.00    2.29    120.000         90.776
          145    145   26857.15 I-Bh-Tv-c-5518     C           670.00   0.10   0.27   1.00   12.67    120.000          3.853
          146    146    6183.82 I-Hl-Kl-b-5527     D           690.00   0.10   0.28   1.00    1.91    120.000         42.361
          147    147   30746.82 Kk1-3a-5567        C          1000.00   0.10   0.30   1.00    1.96    180.000         63.542
          148    148   33858.40 I-Hl-Kl-b-5527     D           690.00   0.10   0.28   1.00   12.64    120.000         92.878
          149    149   54715.04 I-Bd-c-5513        C           550.00   0.10   0.25   1.00   14.31    100.000          4.689
          150    150   16173.14 I-Hl-Kl-b-5527     D           690.00   0.10   0.28   1.00   10.59    120.000         92.878
          151    151   24009.13 I-Bd-c-5513        C           550.00   0.10   0.25   1.00   14.95    100.000          4.689
          152    152   21701.60 I-Bd-c-5513        C           550.00   0.10   0.25   1.00   12.91    100.000          2.358
          153    153    7710.90 I-Bd-c-5513        C           550.00   0.10   0.25   1.00   11.29    100.000          7.013
          154    154   22088.68 I-Bd-c-5513        C           550.00   0.10   0.25   1.00    4.94    100.000          7.013

         HRU Input Summary Table 3:
          Sub   HRU   Area(ha) Urban Irrig DrainTiles Pothole Pstcide Biomix Septic
            1      1   28517.97                                          0.20 x
            2      2   20986.45                                          0.20 x
            3      3   15216.45                                          0.20 x
            4      4   30555.64                                          0.20 x
            5      5   33168.42                                          0.20 x
            6      6   16761.62                                          0.20 x
            7      7   10036.52                                          0.20 x
            8      8   42490.58                                          0.20 x
            9      9   18617.56                                          0.20 x
           10     10   37816.52                                          0.20 x
           11     11   33336.79                                          0.20 x
           12     12   18719.83                                          0.20 x
           13     13   63209.53                                          0.20 x
           14     14   21341.27                                          0.20 x
           15     15   28248.90                                          0.20 x
           16     16   11055.35                                          0.20 x
           17     17   28844.47                                          0.20 x
           18     18   24250.66                                          0.20 x
           19     19   10668.28                                          0.20 x
           20     20   10356.72                                          0.20 x
           21     21   16889.08                                          0.20 x
           22     22   20623.76                                          0.20 x
           23     23   36939.30                                          0.20 x
           24     24   10297.72                                          0.20 x
           25     25   23918.65                                          0.20 x
           26     26   14933.23                                          0.20 x
           27     27   13251.95                                          0.20 x
           28     28   12694.15                                          0.20 x
           29     29   14324.28                                          0.20 x
           30     30   13583.17                                          0.20 x
           31     31   18577.43                                          0.20 x
           32     32   10396.85                                          0.20 x
           33     33   12178.83                                          0.20 x
           34     34   30772.78                                          0.20 x
           35     35   23386.81                                          0.20 x
           36     36   40607.89                                          0.20 x
           37     37   17763.15                                          0.20 x
           38     38   17711.23                                          0.20 x
           39     39   25701.42                                          0.20 x
           40     40   15666.47                                          0.20 x
           41     41   23714.10                                          0.20 x
           42     42   24007.55                                          0.20 x
           43     43   18109.32                                          0.20 x
           44     44   33961.46                                          0.20 x
           45     45   22280.65                                          0.20 x
           46     46   15955.99                                          0.20 x
           47     47   22896.67                                          0.20 x
           48     48   35949.57                                          0.20 x
           49     49   14588.63                                          0.20 x
           50     50   17416.98                                          0.20 x
           51     51   40800.65                                          0.20 x
           52     52   18070.77                                          0.20 x
           53     53   11582.47                                          0.20 x
           54     54   16153.47                                          0.20 x
           55     55   18542.03                                          0.20 x
           56     56   14568.18                                          0.20 x
           57     57   14745.19                                          0.20 x
           58     58   16926.05                                          0.20 x
           59     59   25925.64                                          0.20 x
           60     60   15649.95                                          0.20 x
           61     61   12083.63                                          0.20 x
           62     62   12606.03                                          0.20 x
           63     63   26953.13                                          0.20 x
           64     64   19570.31                                          0.20 x
           65     65   13003.34                                          0.20 x
           66     66   16010.28                                          0.20 x
           67     67   24378.11                                          0.20 x
           68     68   36748.90                                          0.20 x
           69     69   13270.04                                          0.20 x
           70     70   10698.96                                          0.20 x
           71     71   15811.23                                          0.20 x
           72     72   17412.26                                          0.20 x
           73     73   12493.53                                          0.20 x
           74     74   30285.79                                          0.20 x
           75     75   26409.49                                          0.20 x
           76     76   31620.89                                          0.20 x
           77     77   36662.36                                          0.20 x
           78     78   11846.82                                          0.20 x
           79     79   12399.12                                          0.20 x
           80     80   13641.39                                          0.20 x
           81     81   24197.16                                          0.20 x
           82     82   11554.94                                          0.20 x
           83     83   11818.50                                          0.20 x
           84     84   48206.29                                          0.20 x
           85     85   10633.66                                          0.20 x
           86     86   18783.56                                          0.20 x
           87     87   74150.02                                          0.20 x
           88     88   20273.66                                          0.20 x
           89     89   42726.60                                          0.20 x
           90     90   39662.22                                          0.20 x
           91     91   15334.47                                          0.20 x
           92     92   25807.63                                          0.20 x
           93     93   11551.00                                          0.20 x
           94     94   39369.55                                          0.20 x
           95     95   17417.77                                          0.20 x
           96     96   20710.30                                          0.20 x
           97     97   12489.59                                          0.20 x
           98     98   14550.08                                          0.20 x
           99     99   61921.63                                          0.20 x
          100    100   12179.61                                          0.20 x
          101    101   14478.49                                          0.20 x
          102    102    6123.24                                          0.20 x
          103    103   17364.27                                          0.20 x
          104    104   42524.41                                          0.20 x
          105    105    8470.89                                          0.20 x
          106    106   24296.29                                          0.20 x
          107    107   16936.28                                          0.20 x
          108    108    6848.62                                          0.20 x
          109    109   81975.78                                          0.20 x
          110    110   16105.48                                          0.20 x
          111    111   12196.92                                          0.20 x
          112    112   18446.83                                          0.20 x
          113    113   11853.90                                          0.20 x
          114    114    8150.69                                          0.20 x
          115    115   31140.19                                          0.20 x
          116    116   43610.12                                          0.20 x
          117    117   20645.79                                          0.20 x
          118    118   16584.60                                          0.20 x
          119    119    5072.15                                          0.20 x
          120    120   25565.31                                          0.20 x
          121    121   14665.73                                          0.20 x
          122    122    6795.91                                          0.20 x
          123    123    4874.68                                          0.20 x
          124    124    8581.04                                          0.20 x
          125    125    2527.03                                          0.20 x
          126    126   17332.01                                          0.20 x
          127    127   11879.86                                          0.20 x
          128    128  128269.49                                          0.20 x
          129    129   22720.44                                          0.20 x
          130    130   26189.20                                          0.20 x
          131    131   14943.45                                          0.20 x
          132    132    6124.82                                          0.20 x
          133    133   30920.69                                          0.20 x
          134    134   50053.57                                          0.20 x
          135    135   21416.01                                          0.20 x
          136    136   12114.31                                          0.20 x
          137    137   19723.72                                          0.20 x
          138    138   15087.43                                          0.20 x
          139    139   15414.71                                          0.20 x
          140    140   30855.39                                          0.20 x
          141    141   22135.10                                          0.20 x
          142    142   25887.09                                          0.20 x
          143    143   17862.28                                          0.20 x
          144    144   12259.86                                          0.20 x
          145    145   26857.15                                          0.20 x
          146    146    6183.82                                          0.20 x
          147    147   30746.82                                          0.20 x
          148    148   33858.40                                          0.20 x
          149    149   54715.04                                          0.20 x
          150    150   16173.14                                          0.20 x
          151    151   24009.13                                          0.20 x
          152    152   21701.60                                          0.20 x
          153    153    7710.90                                          0.20 x
          154    154   22088.68                                          0.20 x

         HRU Input Summary Table 4 (Groundwater):
          Sub   HRU   Area(ha) GWdelay(days), GWalpha(days) GWQmin(mm) GWrevap Revapmin(mm) Deepfr NO3(ppm) SolP(ppm)
            1      1   28517.97        31.000         0.048   1000.000   0.020      750.000  0.050    0.000     0.000
            2      2   20986.45        31.000         0.048   1000.000   0.020      750.000  0.050    0.000     0.000
            3      3   15216.45        31.000         0.048   1000.000   0.020      750.000  0.050    0.000     0.000
            4      4   30555.64        31.000         0.048   1000.000   0.020      750.000  0.050    0.000     0.000
            5      5   33168.42        31.000         0.048   1000.000   0.020      750.000  0.050    0.000     0.000
            6      6   16761.62        31.000         0.048   1000.000   0.020      750.000  0.050    0.000     0.000
            7      7   10036.52        31.000         0.048   1000.000   0.020      750.000  0.050    0.000     0.000
            8      8   42490.58        31.000         0.048   1000.000   0.020      750.000  0.050    0.000     0.000
            9      9   18617.56        31.000         0.048   1000.000   0.020      750.000  0.050    0.000     0.000
           10     10   37816.52        31.000         0.048   1000.000   0.020      750.000  0.050    0.000     0.000
           11     11   33336.79        31.000         0.048   1000.000   0.020      750.000  0.050    0.000     0.000
           12     12   18719.83        31.000         0.048   1000.000   0.020      750.000  0.050    0.000     0.000
           13     13   63209.53        31.000         0.048   1000.000   0.020      750.000  0.050    0.000     0.000
[...]
          135    135   21416.01        31.000         0.048   1000.000   0.020      750.000  0.050    0.000     0.000
          136    136   12114.31        31.000         0.048   1000.000   0.020      750.000  0.050    0.000     0.000
          137    137   19723.72        31.000         0.048   1000.000   0.020      750.000  0.050    0.000     0.000
          138    138   15087.43        31.000         0.048   1000.000   0.020      750.000  0.050    0.000     0.000
          139    139   15414.71        31.000         0.048   1000.000   0.020      750.000  0.050    0.000     0.000
          140    140   30855.39        31.000         0.048   1000.000   0.020      750.000  0.050    0.000     0.000
          141    141   22135.10        31.000         0.048   1000.000   0.020      750.000  0.050    0.000     0.000
          142    142   25887.09        31.000         0.048   1000.000   0.020      750.000  0.050    0.000     0.000
          143    143   17862.28        31.000         0.048   1000.000   0.020      750.000  0.050    0.000     0.000
          144    144   12259.86        31.000         0.048   1000.000   0.020      750.000  0.050    0.000     0.000
          145    145   26857.15        31.000         0.048   1000.000   0.020      750.000  0.050    0.000     0.000
          146    146    6183.82        31.000         0.048   1000.000   0.020      750.000  0.050    0.000     0.000
          147    147   30746.82        31.000         0.048   1000.000   0.020      750.000  0.050    0.000     0.000
          148    148   33858.40        31.000         0.048   1000.000   0.020      750.000  0.050    0.000     0.000
          149    149   54715.04        31.000         0.048   1000.000   0.020      750.000  0.050    0.000     0.000
          150    150   16173.14        31.000         0.048   1000.000   0.020      750.000  0.050    0.000     0.000
          151    151   24009.13        31.000         0.048   1000.000   0.020      750.000  0.050    0.000     0.000
          152    152   21701.60        31.000         0.048   1000.000   0.020      750.000  0.050    0.000     0.000
          153    153    7710.90        31.000         0.048   1000.000   0.020      750.000  0.050    0.000     0.000
          154    154   22088.68        31.000         0.048   1000.000   0.020      750.000  0.050    0.000     0.000

         Tributary/Main Channel Characteristics
              |--------------Tributary--------------------|---------------------Main---------------------------|
          Sub  Length(km) Slope Width(m) Cond(mm/hr)     N Length(km) Slope Width(m) Depth(m) Cond(mm/hr)     N
            1       33.15 0.007    38.34      0.0000 0.014      17.29 0.002    38.34     1.25      0.0000 0.014
            2       40.33 0.020    31.90      0.0000 0.014      11.86 0.007    31.90     1.10      0.0000 0.014
            3       27.85 0.027    26.30      0.0000 0.014       3.02 0.007    26.30     0.97      0.0000 0.014
            4       38.24 0.067    39.96      0.0000 0.014      17.21 0.052    39.96     1.28      0.0000 0.014
            5       44.18 0.073    41.98      0.0000 0.014      29.04 0.078    41.98     1.32      0.0000 0.014
            6       23.32 0.117    27.87      0.0000 0.014       9.12 0.083    27.87     1.01      0.0000 0.014
            7       24.33 0.103    20.49      0.0000 0.014       0.77 0.081    20.49     0.82      0.0000 0.014
            8       48.06 0.032    48.70      0.0000 0.014      26.24 0.020    48.70     1.46      0.0000 0.014
            9       40.48 0.013    29.68      0.0000 0.014      20.51 0.005    29.68     1.05      0.0000 0.014
           10       45.62 0.014    45.41      0.0000 0.014      27.45 0.003    45.41     1.40      0.0000 0.014
           11       47.26 0.021    42.11      0.0000 0.014      25.40 0.021    42.11     1.33      0.0000 0.014
           12       26.96 0.115    29.78      0.0000 0.014       8.63 0.072    29.78     1.05      0.0000 0.014
           13       67.99 0.022    61.81      0.0000 0.014      52.71 0.023    61.81     1.72      0.0000 0.014
           14       33.97 0.026    32.22      0.0000 0.014      16.52 0.023    32.22     1.11      0.0000 0.014
           15       57.55 0.017    38.12      0.0000 0.014      34.29 0.006    38.12     1.24      0.0000 0.014
           16       29.67 0.035    21.71      0.0000 0.014       5.53 0.022    21.71     0.85      0.0000 0.014
           17       36.36 0.025    38.60      0.0000 0.014      14.93 0.009    38.60     1.25      0.0000 0.014
           18       29.70 0.048    34.79      0.0000 0.014      13.75 0.004    34.79     1.17      0.0000 0.014
           19       23.13 0.101    21.25      0.0000 0.014       3.73 0.090    21.25     0.84      0.0000 0.014
           20       29.38 0.072    20.88      0.0000 0.014       2.59 0.034    20.88     0.83      0.0000 0.014
           21       35.49 0.012    28.00      0.0000 0.014      11.39 0.004    28.00     1.01      0.0000 0.014
           22       35.11 0.024    31.57      0.0000 0.014      18.30 0.014    31.57     1.10      0.0000 0.014
           23       44.74 0.030    44.78      0.0000 0.014      19.86 0.015    44.78     1.38      0.0000 0.014
           24       27.67 0.033    20.81      0.0000 0.014       1.36 0.000    20.81     0.83      0.0000 0.014
           25       34.47 0.054    34.50      0.0000 0.014      12.11 0.064    34.50     1.16      0.0000 0.014
           26       31.62 0.047    26.01      0.0000 0.014       9.18 0.051    26.01     0.96      0.0000 0.014
           27       35.16 0.011    24.21      0.0000 0.014      11.26 0.004    24.21     0.92      0.0000 0.014
           28       24.76 0.028    23.59      0.0000 0.014       3.50 0.058    23.59     0.90      0.0000 0.014
           29       22.74 0.051    25.36      0.0000 0.014       5.22 0.032    25.36     0.95      0.0000 0.014
           30       24.54 0.140    24.57      0.0000 0.014       6.37 0.102    24.57     0.93      0.0000 0.014
           31       33.90 0.056    29.65      0.0000 0.014      13.74 0.055    29.65     1.05      0.0000 0.014
           32       25.52 0.063    20.93      0.0000 0.014       2.36 0.035    20.93     0.83      0.0000 0.014
           33       29.93 0.020    23.01      0.0000 0.014       7.09 0.001    23.01     0.89      0.0000 0.014
           34       36.74 0.022    40.13      0.0000 0.014      17.27 0.018    40.13     1.29      0.0000 0.014
           35       39.02 0.035    34.04      0.0000 0.014      11.70 0.008    34.04     1.15      0.0000 0.014
           36       43.71 0.023    47.40      0.0000 0.014      25.96 0.022    47.40     1.44      0.0000 0.014
           37       28.81 0.025    28.86      0.0000 0.014       7.25 0.048    28.86     1.03      0.0000 0.014
           38       28.49 0.056    28.81      0.0000 0.014      11.27 0.038    28.81     1.03      0.0000 0.014
           39       49.34 0.017    36.02      0.0000 0.014      31.12 0.013    36.02     1.20      0.0000 0.014
           40       23.98 0.039    26.77      0.0000 0.014       8.29 0.028    26.77     0.98      0.0000 0.014
           41       31.63 0.095    34.32      0.0000 0.014      12.53 0.058    34.32     1.16      0.0000 0.014
           42       34.38 0.026    34.58      0.0000 0.014       5.15 0.014    34.58     1.16      0.0000 0.014
           43       23.79 0.055    29.20      0.0000 0.014       6.57 0.065    29.20     1.04      0.0000 0.014
           44       35.27 0.039    42.58      0.0000 0.014      17.60 0.032    42.58     1.34      0.0000 0.014
           45       38.19 0.016    33.06      0.0000 0.014      16.67 0.016    33.06     1.13      0.0000 0.014
           46       33.41 0.037    27.06      0.0000 0.014      14.74 0.022    27.06     0.99      0.0000 0.014
           47       35.12 0.044    33.61      0.0000 0.014      16.61 0.027    33.61     1.14      0.0000 0.014
           48       36.82 0.069    44.06      0.0000 0.014      14.60 0.042    44.06     1.37      0.0000 0.014
           49       30.98 0.033    25.64      0.0000 0.014       5.79 0.029    25.64     0.95      0.0000 0.014
           50       25.32 0.068    28.52      0.0000 0.014       5.26 0.086    28.52     1.02      0.0000 0.014
           51       54.43 0.012    47.53      0.0000 0.014      25.12 0.002    47.53     1.44      0.0000 0.014
           52       27.51 0.034    29.16      0.0000 0.014      11.52 0.011    29.16     1.04      0.0000 0.014
           53       23.79 0.140    22.33      0.0000 0.014       6.00 0.075    22.33     0.87      0.0000 0.014
           54       28.25 0.086    27.26      0.0000 0.014       3.77 0.051    27.26     0.99      0.0000 0.014
           55       25.06 0.035    29.61      0.0000 0.014       8.75 0.013    29.61     1.05      0.0000 0.014
           56       25.14 0.046    25.62      0.0000 0.014       7.99 0.042    25.62     0.95      0.0000 0.014
           57       25.29 0.044    25.81      0.0000 0.014       7.36 0.036    25.81     0.96      0.0000 0.014
           58       39.74 0.039    28.04      0.0000 0.014      15.34 0.017    28.04     1.01      0.0000 0.014
           59       33.91 0.120    36.21      0.0000 0.014      19.21 0.095    36.21     1.20      0.0000 0.014
           60       24.70 0.107    26.75      0.0000 0.014       2.54 0.078    26.75     0.98      0.0000 0.014
           61       25.36 0.063    22.90      0.0000 0.014       5.80 0.029    22.90     0.89      0.0000 0.014
           62       32.28 0.010    23.49      0.0000 0.014      18.35 0.004    61.16     1.70      0.0000 0.014
           63       34.93 0.032    37.06      0.0000 0.014      26.14 0.012    60.32     1.69      0.0000 0.014
           64       25.77 0.046    30.59      0.0000 0.014       8.14 0.042    30.59     1.07      0.0000 0.014
           65       29.59 0.113    23.93      0.0000 0.014       8.64 0.059    23.93     0.91      0.0000 0.014
           66       23.92 0.038    27.12      0.0000 0.014       5.81 0.014    27.12     0.99      0.0000 0.014
           67       33.70 0.037    34.90      0.0000 0.014      14.44 0.026    34.90     1.17      0.0000 0.014
           68       44.93 0.079    44.64      0.0000 0.014      24.94 0.063    44.64     1.38      0.0000 0.014
           69       27.00 0.108    24.23      0.0000 0.014       7.39 0.101    24.23     0.92      0.0000 0.014
           70       33.05 0.036    21.29      0.0000 0.014       0.43 0.096    21.29     0.84      0.0000 0.014
           71       27.60 0.044    26.91      0.0000 0.014       9.64 0.035    26.91     0.98      0.0000 0.014
           72       23.02 0.019    28.52      0.0000 0.014      19.50 0.002    93.87     2.27      0.0000 0.014
           73       26.29 0.033    23.37      0.0000 0.014      23.33 0.011    66.06     1.79      0.0000 0.014
           74       42.79 0.041    39.75      0.0000 0.014      20.21 0.025    39.75     1.28      0.0000 0.014
           75       39.35 0.072    36.61      0.0000 0.014      22.12 0.075    36.61     1.21      0.0000 0.014
           76       42.78 0.036    40.79      0.0000 0.014      26.93 0.022    40.79     1.30      0.0000 0.014
           77       37.16 0.048    44.58      0.0000 0.014      16.43 0.025    44.58     1.38      0.0000 0.014
           78       22.00 0.171    22.63      0.0000 0.014       3.65 0.061    22.63     0.88      0.0000 0.014
           79       26.02 0.050    23.26      0.0000 0.014       8.63 0.063    23.26     0.89      0.0000 0.014
           80       24.91 0.037    24.63      0.0000 0.014       8.83 0.031    24.63     0.93      0.0000 0.014
           81       38.99 0.045    34.74      0.0000 0.014      23.68 0.047    34.74     1.17      0.0000 0.014
           82       18.78 0.014    22.30      0.0000 0.014      10.09 0.000   104.49     2.43      0.0000 0.014
           83       27.10 0.025    22.60      0.0000 0.014      15.39 0.006   202.11     3.78      0.0000 0.014
           84       56.92 0.029    52.53      0.0000 0.014      36.66 0.017    52.53     1.54      0.0000 0.014
           85       20.34 0.151    21.21      0.0000 0.014       3.19 0.090    21.21     0.84      0.0000 0.014
           86       29.35 0.050    29.84      0.0000 0.014      12.73 0.038    29.84     1.05      0.0000 0.014
           87       63.66 0.027    68.02      0.0000 0.014      41.27 0.020    68.02     1.83      0.0000 0.014
           88       41.99 0.053    31.24      0.0000 0.014      23.35 0.025    31.24     1.09      0.0000 0.014
           89       60.27 0.027    48.87      0.0000 0.014      43.45 0.025    48.87     1.47      0.0000 0.014
           90       57.80 0.028    46.73      0.0000 0.014      44.46 0.022    46.73     1.42      0.0000 0.014
           91       34.18 0.017    26.42      0.0000 0.014      13.29 0.005   149.09     3.08      0.0000 0.014
           92       37.65 0.033    36.11      0.0000 0.014      17.80 0.018    36.11     1.20      0.0000 0.014
           93       25.30 0.125    22.29      0.0000 0.014       5.01 0.074    22.29     0.87      0.0000 0.014
           94       45.79 0.038    46.52      0.0000 0.014      33.77 0.024    68.86     1.84      0.0000 0.014
           95       28.16 0.035    28.52      0.0000 0.014      10.26 0.019    28.52     1.02      0.0000 0.014
           96       31.27 0.027    31.64      0.0000 0.014      27.94 0.006   230.14     4.12      0.0000 0.014
           97       34.89 0.107    23.36      0.0000 0.014      11.28 0.099    23.36     0.90      0.0000 0.014
           98       28.41 0.111    25.60      0.0000 0.014       7.03 0.079    25.60     0.95      0.0000 0.014
           99       69.26 0.011    61.05      0.0000 0.014      52.10 0.001   176.07     3.45      0.0000 0.014
          100       20.69 0.042    23.01      0.0000 0.014       8.30 0.003   240.48     4.24      0.0000 0.014
          101       28.24 0.043    25.53      0.0000 0.014       7.50 0.021    25.53     0.95      0.0000 0.014
          102       16.85 0.082    15.23      0.0000 0.014      11.10 0.024    57.39     1.63      0.0000 0.014
          103       35.28 0.101    28.47      0.0000 0.014      17.08 0.036    56.30     1.61      0.0000 0.014
          104       40.12 0.041    48.73      0.0000 0.014      24.06 0.016   113.50     2.57      0.0000 0.014
          105       17.97 0.070    18.51      0.0000 0.014      20.16 0.022    61.82     1.72      0.0000 0.014
          106       36.35 0.024    34.83      0.0000 0.014      24.88 0.004   261.98     4.49      0.0000 0.014
          107       28.09 0.112    28.05      0.0000 0.014      11.11 0.033    66.39     1.80      0.0000 0.014
          108       16.77 0.169    16.29      0.0000 0.014      11.52 0.043    46.37     1.42      0.0000 0.014
          109       76.59 0.027    72.24      0.0000 0.014      66.95 0.017    89.42     2.19      0.0000 0.014
          110       30.57 0.066    27.21      0.0000 0.014      11.51 0.007    93.91     2.27      0.0000 0.014
          111       21.54 0.052    23.03      0.0000 0.014      15.73 0.022    53.32     1.55      0.0000 0.014
          112       24.05 0.131    29.52      0.0000 0.014      14.63 0.041    66.02     1.79      0.0000 0.014
          113       24.11 0.066    22.64      0.0000 0.014      13.32 0.015    62.62     1.73      0.0000 0.014
          114       26.33 0.046    18.08      0.0000 0.014       4.04 0.013    52.69     1.54      0.0000 0.014
          115       33.51 0.032    40.42      0.0000 0.014      28.10 0.009    79.30     2.02      0.0000 0.014
          116       49.02 0.036    49.47      0.0000 0.014      45.26 0.024   145.59     3.04      0.0000 0.014
          117       26.73 0.119    31.59      0.0000 0.014      13.91 0.023    83.06     2.09      0.0000 0.014
          118       30.00 0.123    27.70      0.0000 0.014      15.59 0.027    80.90     2.05      0.0000 0.014
          119       18.73 0.115    13.61      0.0000 0.014       7.57 0.000   257.24     4.44      0.0000 0.014
          120       49.93 0.034    35.91      0.0000 0.014      29.39 0.011    93.11     2.25      0.0000 0.014
          121       23.62 0.048    25.73      0.0000 0.014      11.79 0.018    72.49     1.91      0.0000 0.014
          122       16.68 0.088    16.22      0.0000 0.014       9.05 0.004   444.58     6.39      0.0000 0.014
          123       16.33 0.171    13.29      0.0000 0.014       9.72 0.000    90.87     2.22      0.0000 0.014
          124       18.99 0.070    18.65      0.0000 0.014       6.02 0.000   373.40     5.69      0.0000 0.014
          125       11.87 0.124     8.96      0.0000 0.014       6.75 0.020   465.98     6.59      0.0000 0.014
          126       31.80 0.041    28.44      0.0000 0.014      20.28 0.013    65.16     1.78      0.0000 0.014
          127       24.78 0.055    22.67      0.0000 0.014       5.78 0.000   379.76     5.75      0.0000 0.014
          128      119.76 0.019    94.51      0.0000 0.014     113.55 0.006   485.29     6.78      0.0000 0.014
          129       31.35 0.052    33.45      0.0000 0.014      29.88 0.013   115.29     2.60      0.0000 0.014
          130       57.39 0.023    36.43      0.0000 0.014      32.31 0.007   112.06     2.55      0.0000 0.014
          131       33.51 0.042    26.02      0.0000 0.014      31.11 0.009   384.16     5.80      0.0000 0.014
          132       13.92 0.155    15.23      0.0000 0.014      11.96 0.000   581.11     7.64      0.0000 0.014
          133       43.75 0.046    40.25      0.0000 0.014      36.51 0.015   115.91     2.61      0.0000 0.014
          134       54.36 0.047    53.73      0.0000 0.014      43.54 0.002   589.72     7.71      0.0000 0.014
          135       35.42 0.030    32.29      0.0000 0.014      22.32 0.003   277.54     4.67      0.0000 0.014
          136       27.21 0.050    22.94      0.0000 0.014      20.36 0.016    95.47     2.29      0.0000 0.014
          137       30.76 0.082    30.73      0.0000 0.014      22.13 0.009   593.68     7.75      0.0000 0.014
          138       27.21 0.031    26.17      0.0000 0.014      21.01 0.003   298.06     4.89      0.0000 0.014
          139       23.78 0.031    26.51      0.0000 0.014      14.97 0.009   307.97     5.00      0.0000 0.014
          140       36.64 0.037    40.20      0.0000 0.014      29.49 0.006   439.73     6.34      0.0000 0.014
          141       30.16 0.079    32.93      0.0000 0.014      28.15 0.009   176.06     3.45      0.0000 0.014
          142       32.15 0.092    36.18      0.0000 0.014      25.91 0.011   599.20     7.80      0.0000 0.014
          143       25.99 0.073    28.96      0.0000 0.014      29.95 0.029   161.65     3.25      0.0000 0.014
          144       23.84 0.034    23.10      0.0000 0.014      26.02 0.006   320.77     5.14      0.0000 0.014
          145       39.30 0.078    36.98      0.0000 0.014      22.05 0.000   604.36     7.84      0.0000 0.014
          146       21.14 0.027    15.32      0.0000 0.014       4.94 0.000   325.27     5.19      0.0000 0.014
          147       36.00 0.031    40.11      0.0000 0.014      25.76 0.000   336.96     5.31      0.0000 0.014
          148       40.16 0.063    42.50      0.0000 0.014      34.10 0.008   620.99     7.99      0.0000 0.014
          149       52.85 0.055    56.68      0.0000 0.014      39.00 0.012   656.86     8.29      0.0000 0.014
          150       23.99 0.101    27.28      0.0000 0.014      12.25 0.000   635.39     8.11      0.0000 0.014
          151       29.90 0.098    34.58      0.0000 0.014      22.77 0.005   664.49     8.35      0.0000 0.014
          152       37.08 0.093    32.55      0.0000 0.014      26.49 0.003   670.21     8.40      0.0000 0.014
          153       22.79 0.085    17.49      0.0000 0.014      15.48 0.007   677.59     8.46      0.0000 0.014
          154       31.15 0.064    32.89      0.0000 0.014      21.05 0.001   681.75     8.50      0.0000 0.014
