1
    SWAT Sep 7    VER 2018/Rev 670                                                                       0/ 0/   0      0: 0: 0

    General Input/Output section (file.cio):                                        
    2020-03-28 00:00:00 ARCGIS-SWAT interface AV                                    
                                                                                    


LULC  HRU       GIS  SUB  MGT  MON   AREAkm2  PRECIPmm
AGRL    1 000010001    1    0    1.28518E+03   117.300
AGRL    2 000020001    2    0    1.20986E+03   102.300
PAST    3 000030001    3    0    1.15216E+03    83.800
FRSE    4 000040001    4    0    1.30556E+03   125.300
FRSE    5 000050001    5    0    1.33168E+03    95.500
PAST    6 000060001    6    0    1.16762E+03   198.600
PAST    7 000070001    7    0    1.10037E+03    91.400
PAST    8 000080001    8    0    1.42491E+03    99.700
PAST    9 000090001    9    0    1.18618E+03    72.300
AGRL   10 000100001   10    0    1.37817E+03    85.700
PAST   11 000110001   11    0    1.33337E+03   115.400
FRSE   12 000120001   12    0    1.18720E+03   164.300
PAST   13 000130001   13    0    1.63210E+03   205.100
PAST   14 000140001   14    0    1.21341E+03   173.600
AGRL   15 000150001   15    0    1.28249E+03   118.700
PAST   16 000160001   16    0    1.11055E+03   105.700
PAST   17 000170001   17    0    1.28844E+03   148.400
PAST   18 000180001   18    0    1.24251E+03    96.500
PAST   19 000190001   19    0    1.10668E+03   174.900
PAST   20 000200001   20    0    1.10357E+03    63.100
PAST   21 000210001   21    0    1.16889E+03   120.500
PAST   22 000220001   22    0    1.20624E+03    95.700
PAST   23 000230001   23    0    1.36939E+03   135.600
PAST   24 000240001   24    0    1.10298E+03    78.600
PAST   25 000250001   25    0    1.23919E+03    75.900
PAST   26 000260001   26    0    1.14933E+03    91.700
AGRL   27 000270001   27    0    1.13252E+03   117.900
PAST   28 000280001   28    0    1.12694E+03   109.700
PAST   29 000290001   29    0    1.14324E+03   195.700
FRSE   30 000300001   30    0    1.13583E+03   197.500
PAST   31 000310001   31    0    1.18577E+03   114.100
PAST   32 000320001   32    0    1.10397E+03   128.900
AGRL   33 000330001   33    0    1.12179E+03    80.800
PAST   34 000340001   34    0    1.30773E+03   112.800
PAST   35 000350001   35    0    1.23387E+03   115.400
PAST   36 000360001   36    0    1.40608E+03   166.500
PAST   37 000370001   37    0    1.17763E+03   237.000
PAST   38 000380001   38    0    1.17711E+03   119.900
AGRL   39 000390001   39    0    1.25701E+03   164.400
PAST   40 000400001   40    0    1.15666E+03   134.500
FRSE   41 000410001   41    0    1.23714E+03   183.100
PAST   42 000420001   42    0    1.24008E+03   124.400
PAST   43 000430001   43    0    1.18109E+03    99.300
PAST   44 000440001   44    0    1.33961E+03   139.800
AGRL   45 000450001   45    0    1.22281E+03   134.700
PAST   46 000460001   46    0    1.15956E+03   108.400
PAST   47 000470001   47    0    1.22897E+03   225.700
PAST   48 000480001   48    0    1.35950E+03    66.900
PAST   49 000490001   49    0    1.14589E+03   187.200
PAST   50 000500001   50    0    1.17417E+03    66.200
PAST   51 000510001   51    0    1.40801E+03    59.200
FRST   52 000520001   52    0    1.18071E+03   144.000
FRSE   53 000530001   53    0    1.11582E+03   200.400
FRSE   54 000540001   54    0    1.16153E+03    76.000
PAST   55 000550001   55    0    1.18542E+03   237.500
PAST   56 000560001   56    0    1.14568E+03    98.500
PAST   57 000570001   57    0    1.14745E+03   105.100
PAST   58 000580001   58    0    1.16926E+03   109.100
FRSE   59 000590001   59    0    1.25926E+03   275.200
PAST   60 000600001   60    0    1.15650E+03    89.300
PAST   61 000610001   61    0    1.12084E+03    91.400
AGRL   62 000620001   62    0    1.12606E+03   114.800
PAST   63 000630001   63    0    1.26953E+03   116.400
PAST   64 000640001   64    0    1.19570E+03   274.300
FRSE   65 000650001   65    0    1.13003E+03   636.500
PAST   66 000660001   66    0    1.16010E+03   164.600
PAST   67 000670001   67    0    1.24378E+03   157.500
FRSE   68 000680001   68    0    1.36749E+03   124.400
PAST   69 000690001   69    0    1.13270E+03   163.500
PAST   70 000700001   70    0    1.10699E+03   138.000
PAST   71 000710001   71    0    1.15811E+03    99.600
WATR   72 000720001   72    0    1.17412E+03    77.800
PAST   73 000730001   73    0    1.12494E+03    98.800
PAST   74 000740001   74    0    1.30286E+03   118.200
PAST   75 000750001   75    0    1.26409E+03    60.200
PAST   76 000760001   76    0    1.31621E+03   153.000
PAST   77 000770001   77    0    1.36662E+03    86.500
FRSE   78 000780001   78    0    1.11847E+03   179.600
PAST   79 000790001   79    0    1.12399E+03    81.900
PAST   80 000800001   80    0    1.13641E+03   145.000
PAST   81 000810001   81    0    1.24197E+03    64.500
FRST   82 000820001   82    0    1.11555E+03   161.200
PAST   83 000830001   83    0    1.11818E+03   111.100
PAST   84 000840001   84    0    1.48206E+03   219.200
FRSE   85 000850001   85    0    1.10634E+03   344.000
PAST   86 000860001   86    0    1.18784E+03   115.100
PAST   87 000870001   87    0    1.74150E+03    85.500
PAST   88 000880001   88    0    1.20274E+03   103.800
PAST   89 000890001   89    0    1.42727E+03   194.500
PAST   90 000900001   90    0    1.39662E+03    92.800
PAST   91 000910001   91    0    1.15334E+03   122.700
PAST   92 000920001   92    0    1.25808E+03   101.000
FRSE   93 000930001   93    0    1.11551E+03   348.700
PAST   94 000940001   94    0    1.39370E+03   132.700
PAST   95 000950001   95    0    1.17418E+03    95.300
PAST   96 000960001   96    0    1.20710E+03   112.000
FRSE   97 000970001   97    0    1.12490E+03   122.800
FRSE   98 000980001   98    0    1.14550E+03   245.300
PAST   99 000990001   99    0    1.61922E+03   124.900
PAST  100 001000001  100    0    1.12180E+03    91.400
PAST  101 001010001  101    0    1.14478E+03    89.600
PAST  102 001020001  102    0    1.61232E+02   103.000
FRSE  103 001030001  103    0    1.17364E+03   596.200
PAST  104 001040001  104    0    1.42524E+03    82.400
PAST  105 001050001  105    0    1.84709E+02   119.800
PAST  106 001060001  106    0    1.24296E+03    91.900
FRSE  107 001070001  107    0    1.16936E+03   146.200
FRSE  108 001080001  108    0    1.68486E+02   322.900
PAST  109 001090001  109    0    1.81976E+03   139.100
PAST  110 001100001  110    0    1.16105E+03    96.900
PAST  111 001110001  111    0    1.12197E+03   168.500
PAST  112 001120001  112    0    1.18447E+03    90.400
PAST  113 001130001  113    0    1.11854E+03   112.400
PAST  114 001140001  114    0    1.81507E+02    76.600
PAST  115 001150001  115    0    1.31140E+03   110.900
PAST  116 001160001  116    0    1.43610E+03   137.200
FRSE  117 001170001  117    0    1.20646E+03   149.500
FRSE  118 001180001  118    0    1.16585E+03   153.000
PAST  119 001190001  119    0    1.50722E+02    95.100
PAST  120 001200001  120    0    1.25565E+03    66.800
PAST  121 001210001  121    0    1.14666E+03   222.300
PAST  122 001220001  122    0    1.67959E+02    75.900
FRSE  123 001230001  123    0    1.48747E+02   193.600
PAST  124 001240001  124    0    1.85810E+02   127.400
PAST  125 001250001  125    0    1.25270E+02    75.900
PAST  126 001260001  126    0    1.17332E+03   111.500
PAST  127 001270001  127    0    1.11880E+03   109.100
PAST  128 001280001  128    0    1.12827E+04   166.000
PAST  129 001290001  129    0    1.22720E+03   143.100
PAST  130 001300001  130    0    1.26189E+03   114.800
PAST  131 001310001  131    0    1.14943E+03    69.300
FRST  132 001320001  132    0    1.61248E+02   119.500
PAST  133 001330001  133    0    1.30921E+03    94.400
PAST  134 001340001  134    0    1.50054E+03   143.400
PAST  135 001350001  135    0    1.21416E+03   147.500
PAST  136 001360001  136    0    1.12114E+03    79.400
FRST  137 001370001  137    0    1.19724E+03   180.700
PAST  138 001380001  138    0    1.15087E+03   125.300
PAST  139 001390001  139    0    1.15415E+03    89.000
PAST  140 001400001  140    0    1.30855E+03    58.300
PAST  141 001410001  141    0    1.22135E+03    96.800
FRSE  142 001420001  142    0    1.25887E+03   168.000
PAST  143 001430001  143    0    1.17862E+03   119.300
PAST  144 001440001  144    0    1.12260E+03    82.400
FRSE  145 001450001  145    0    1.26857E+03   115.000
AGRL  146 001460001  146    0    1.61838E+02    90.300
PAST  147 001470001  147    0    1.30747E+03   104.900
FRST  148 001480001  148    0    1.33858E+03   114.500
FRSE  149 001490001  149    0    1.54715E+03   260.800
FRSE  150 001500001  150    0    1.16173E+03   189.700
FRSE  151 001510001  151    0    1.24009E+03   440.500
FRSE  152 001520001  152    0    1.21702E+03   599.400
FRSE  153 001530001  153    0    1.77109E+02   640.000
FRSE  154 001540001  154    0    1.22089E+03   466.600
AGRL    1 000010001    1    0    2.28518E+03   207.800
AGRL    2 000020001    2    0    2.20986E+03   208.500
PAST    3 000030001    3    0    2.15216E+03   212.400
FRSE    4 000040001    4    0    2.30556E+03   154.800
FRSE    5 000050001    5    0    2.33168E+03    76.600
PAST    6 000060001    6    0    2.16762E+03   293.500
PAST    7 000070001    7    0    2.10037E+03   169.400
PAST    8 000080001    8    0    2.42491E+03   173.600
PAST    9 000090001    9    0    2.18618E+03   119.500
AGRL   10 000100001   10    0    2.37817E+03   134.200
PAST   11 000110001   11    0    2.33337E+03   114.000
FRSE   12 000120001   12    0    2.18720E+03   242.300
PAST   13 000130001   13    0    2.63210E+03   182.100
PAST   14 000140001   14    0    2.21341E+03   270.600
AGRL   15 000150001   15    0    2.28249E+03   194.500
PAST   16 000160001   16    0    2.11055E+03   208.800
PAST   17 000170001   17    0    2.28844E+03   140.200
PAST   18 000180001   18    0    2.24251E+03    89.300
PAST   19 000190001   19    0    2.10668E+03   282.300
PAST   20 000200001   20    0    2.10357E+03   102.600
PAST   21 000210001   21    0    2.16889E+03   205.000
PAST   22 000220001   22    0    2.20624E+03   241.400
PAST   23 000230001   23    0    2.36939E+03   225.200
PAST   24 000240001   24    0    2.10298E+03    71.500
PAST   25 000250001   25    0    2.23919E+03   155.300
PAST   26 000260001   26    0    2.14933E+03   225.800
AGRL   27 000270001   27    0    2.13252E+03   135.200
PAST   28 000280001   28    0    2.12694E+03   172.700
PAST   29 000290001   29    0    2.14324E+03   199.900
FRSE   30 000300001   30    0    2.13583E+03   270.600
PAST   31 000310001   31    0    2.18577E+03   163.000
PAST   32 000320001   32    0    2.10397E+03   187.600
AGRL   33 000330001   33    0    2.12179E+03    98.900
PAST   34 000340001   34    0    2.30773E+03   103.600
PAST   35 000350001   35    0    2.23387E+03   120.900
PAST   36 000360001   36    0    2.40608E+03   153.400
PAST   37 000370001   37    0    2.17763E+03   200.000
PAST   38 000380001   38    0    2.17711E+03   263.500
AGRL   39 000390001   39    0    2.25701E+03   189.500
PAST   40 000400001   40    0    2.15666E+03   226.700
FRSE   41 000410001   41    0    2.23714E+03   130.200
PAST   42 000420001   42    0    2.24008E+03   115.600
PAST   43 000430001   43    0    2.18109E+03   269.200
PAST   44 000440001   44    0    2.33961E+03   268.100
AGRL   45 000450001   45    0    2.22281E+03   186.000
PAST   46 000460001   46    0    2.15956E+03   224.500
PAST   47 000470001   47    0    2.22897E+03   265.900
PAST   48 000480001   48    0    2.35950E+03    59.600
PAST   49 000490001   49    0    2.14589E+03   241.300
PAST   50 000500001   50    0    2.17417E+03   172.100
PAST   51 000510001   51    0    2.40801E+03   100.600
FRST   52 000520001   52    0    2.18071E+03   212.300
FRSE   53 000530001   53    0    2.11582E+03   156.600
FRSE   54 000540001   54    0    2.16153E+03    56.900
PAST   55 000550001   55    0    2.18542E+03   192.200
PAST   56 000560001   56    0    2.14568E+03   150.100
PAST   57 000570001   57    0    2.14745E+03   202.500
PAST   58 000580001   58    0    2.16926E+03   114.600
FRSE   59 000590001   59    0    2.25926E+03   415.300
PAST   60 000600001   60    0    2.15650E+03   144.600
PAST   61 000610001   61    0    2.12084E+03   184.200
AGRL   62 000620001   62    0    2.12606E+03   210.400
PAST   63 000630001   63    0    2.26953E+03   215.800
PAST   64 000640001   64    0    2.19570E+03   227.700
FRSE   65 000650001   65    0    2.13003E+03   860.600
PAST   66 000660001   66    0    2.16010E+03   253.600
PAST   67 000670001   67    0    2.24378E+03   176.600
FRSE   68 000680001   68    0    2.36749E+03   100.100
PAST   69 000690001   69    0    2.13270E+03   188.800
PAST   70 000700001   70    0    2.10699E+03   276.800
PAST   71 000710001   71    0    2.15811E+03   136.600
WATR   72 000720001   72    0    2.17412E+03    86.400
PAST   73 000730001   73    0    2.12494E+03   197.700
PAST   74 000740001   74    0    2.30286E+03   123.000
PAST   75 000750001   75    0    2.26409E+03    75.600
PAST   76 000760001   76    0    2.31621E+03   253.700
PAST   77 000770001   77    0    2.36662E+03   140.100
FRSE   78 000780001   78    0    2.11847E+03   183.900
PAST   79 000790001   79    0    2.12399E+03    93.600
PAST   80 000800001   80    0    2.13641E+03   267.300
PAST   81 000810001   81    0    2.24197E+03   193.200
FRST   82 000820001   82    0    2.11555E+03   172.100
PAST   83 000830001   83    0    2.11818E+03   198.800
PAST   84 000840001   84    0    2.48206E+03   258.900
FRSE   85 000850001   85    0    2.10634E+03   528.700
PAST   86 000860001   86    0    2.18784E+03   297.300
PAST   87 000870001   87    0    2.74150E+03   120.900
PAST   88 000880001   88    0    2.20274E+03    76.400
PAST   89 000890001   89    0    2.42727E+03   162.800
PAST   90 000900001   90    0    2.39662E+03   175.200
PAST   91 000910001   91    0    2.15334E+03   235.800
PAST   92 000920001   92    0    2.25808E+03   144.600
FRSE   93 000930001   93    0    2.11551E+03   552.200
PAST   94 000940001   94    0    2.39370E+03   203.500
PAST   95 000950001   95    0    2.17418E+03   158.200
PAST   96 000960001   96    0    2.20710E+03   184.700
FRSE   97 000970001   97    0    2.12490E+03   168.200
FRSE   98 000980001   98    0    2.14550E+03   365.300
PAST   99 000990001   99    0    2.61922E+03   168.000
PAST  100 001000001  100    0    2.12180E+03   168.900
PAST  101 001010001  101    0    2.14478E+03   110.600
PAST  102 001020001  102    0    2.61232E+02   231.500
FRSE  103 001030001  103    0    2.17364E+03   890.000
PAST  104 001040001  104    0    2.42524E+03   169.800
PAST  105 001050001  105    0    2.84709E+02   175.600
PAST  106 001060001  106    0    2.24296E+03   106.100
FRSE  107 001070001  107    0    2.16936E+03   197.300
FRSE  108 001080001  108    0    2.68486E+02   427.200
PAST  109 001090001  109    0    2.81976E+03   257.600
PAST  110 001100001  110    0    2.16105E+03   163.700
PAST  111 001110001  111    0    2.12197E+03   152.500
PAST  112 001120001  112    0    2.18447E+03    88.500
PAST  113 001130001  113    0    2.11854E+03   294.000
PAST  114 001140001  114    0    2.81507E+02   109.900
PAST  115 001150001  115    0    2.31140E+03   110.600
PAST  116 001160001  116    0    2.43610E+03   254.300
FRSE  117 001170001  117    0    2.20646E+03   212.500
FRSE  118 001180001  118    0    2.16585E+03   236.700
PAST  119 001190001  119    0    2.50722E+02   152.300
PAST  120 001200001  120    0    2.25565E+03   198.000
PAST  121 001210001  121    0    2.14666E+03   149.300
PAST  122 001220001  122    0    2.67959E+02   101.500
FRSE  123 001230001  123    0    2.48747E+02   232.400
PAST  124 001240001  124    0    2.85810E+02   117.200
PAST  125 001250001  125    0    2.25270E+02   101.500
PAST  126 001260001  126    0    2.17332E+03   132.700
PAST  127 001270001  127    0    2.11880E+03   105.400
PAST  128 001280001  128    0    2.12827E+04   224.000
PAST  129 001290001  129    0    2.22720E+03   228.800
PAST  130 001300001  130    0    2.26189E+03   122.800
PAST  131 001310001  131    0    2.14943E+03    70.300
FRST  132 001320001  132    0    2.61248E+02   196.600
PAST  133 001330001  133    0    2.30921E+03   221.500
PAST  134 001340001  134    0    2.50054E+03   239.000
PAST  135 001350001  135    0    2.21416E+03   122.000
PAST  136 001360001  136    0    2.12114E+03    79.400
FRST  137 001370001  137    0    2.19724E+03   236.600
PAST  138 001380001  138    0    2.15087E+03   118.200
PAST  139 001390001  139    0    2.15415E+03   110.800
PAST  140 001400001  140    0    2.30855E+03    77.100
PAST  141 001410001  141    0    2.22135E+03   177.200
FRSE  142 001420001  142    0    2.25887E+03   198.200
PAST  143 001430001  143    0    2.17862E+03   234.900
PAST  144 001440001  144    0    2.12260E+03   114.700
FRSE  145 001450001  145    0    2.26857E+03   145.800
AGRL  146 001460001  146    0    2.61838E+02   122.200
PAST  147 001470001  147    0    2.30747E+03   119.400
FRST  148 001480001  148    0    2.33858E+03   152.400
FRSE  149 001490001  149    0    2.54715E+03   372.500
FRSE  150 001500001  150    0    2.16173E+03   240.000
FRSE  151 001510001  151    0    2.24009E+03   567.800
FRSE  152 001520001  152    0    2.21702E+03   902.500
FRSE  153 001530001  153    0    2.77109E+02   961.900
FRSE  154 001540001  154    0    2.22089E+03   776.800
AGRL    1 000010001    1    0    3.28518E+03   142.900
AGRL    2 000020001    2    0    3.20986E+03   184.500
PAST    3 000030001    3    0    3.15216E+03   117.000
FRSE    4 000040001    4    0    3.30556E+03   105.600
FRSE    5 000050001    5    0    3.33168E+03    55.700
PAST    6 000060001    6    0    3.16762E+03   154.200
PAST    7 000070001    7    0    3.10037E+03    37.200
PAST    8 000080001    8    0    3.42491E+03    35.200
PAST    9 000090001    9    0    3.18618E+03    43.500
AGRL   10 000100001   10    0    3.37817E+03    83.200
PAST   11 000110001   11    0    3.33337E+03    64.700
FRSE   12 000120001   12    0    3.18720E+03   135.900
PAST   13 000130001   13    0    3.63210E+03   159.400
PAST   14 000140001   14    0    3.21341E+03   187.400
AGRL   15 000150001   15    0    3.28249E+03   149.900
PAST   16 000160001   16    0    3.11055E+03    86.200
PAST   17 000170001   17    0    3.28844E+03    84.800
PAST   18 000180001   18    0    3.24251E+03    58.000
PAST   19 000190001   19    0    3.10668E+03   137.900
PAST   20 000200001   20    0    3.10357E+03    23.300
PAST   21 000210001   21    0    3.16889E+03   147.100
PAST   22 000220001   22    0    3.20624E+03   108.100
PAST   23 000230001   23    0    3.36939E+03   105.800
PAST   24 000240001   24    0    3.10298E+03    34.700
PAST   25 000250001   25    0    3.23919E+03    79.200
PAST   26 000260001   26    0    3.14933E+03    48.200
AGRL   27 000270001   27    0    3.13252E+03    88.200
PAST   28 000280001   28    0    3.12694E+03    87.900
PAST   29 000290001   29    0    3.14324E+03   121.800
FRSE   30 000300001   30    0    3.13583E+03   156.600
PAST   31 000310001   31    0    3.18577E+03   101.800
PAST   32 000320001   32    0    3.10397E+03    74.500
AGRL   33 000330001   33    0    3.12179E+03    58.100
PAST   34 000340001   34    0    3.30773E+03    47.900
PAST   35 000350001   35    0    3.23387E+03    76.800
PAST   36 000360001   36    0    3.40608E+03   125.700
PAST   37 000370001   37    0    3.17763E+03   166.600
PAST   38 000380001   38    0    3.17711E+03   109.300
AGRL   39 000390001   39    0    3.25701E+03   113.500
PAST   40 000400001   40    0    3.15666E+03    85.300
FRSE   41 000410001   41    0    3.23714E+03   107.100
PAST   42 000420001   42    0    3.24008E+03    87.600
PAST   43 000430001   43    0    3.18109E+03   174.400
PAST   44 000440001   44    0    3.33961E+03   142.600
AGRL   45 000450001   45    0    3.22281E+03   112.500
PAST   46 000460001   46    0    3.15956E+03    94.900
PAST   47 000470001   47    0    3.22897E+03   140.700
PAST   48 000480001   48    0    3.35950E+03    48.200
PAST   49 000490001   49    0    3.14589E+03    69.300
PAST   50 000500001   50    0    3.17417E+03    25.700
PAST   51 000510001   51    0    3.40801E+03    56.900
FRST   52 000520001   52    0    3.18071E+03   104.900
FRSE   53 000530001   53    0    3.11582E+03   163.800
FRSE   54 000540001   54    0    3.16153E+03    49.400
PAST   55 000550001   55    0    3.18542E+03   168.800
PAST   56 000560001   56    0    3.14568E+03    41.200
PAST   57 000570001   57    0    3.14745E+03    96.400
PAST   58 000580001   58    0    3.16926E+03    77.400
FRSE   59 000590001   59    0    3.25926E+03   243.200
PAST   60 000600001   60    0    3.15650E+03    48.200
PAST   61 000610001   61    0    3.12084E+03    40.400
AGRL   62 000620001   62    0    3.12606E+03   170.500
PAST   63 000630001   63    0    3.26953E+03    96.600
PAST   64 000640001   64    0    3.19570E+03    93.800
FRSE   65 000650001   65    0    3.13003E+03   402.400
PAST   66 000660001   66    0    3.16010E+03    77.300
PAST   67 000670001   67    0    3.24378E+03    71.000
FRSE   68 000680001   68    0    3.36749E+03    73.500
PAST   69 000690001   69    0    3.13270E+03   111.900
PAST   70 000700001   70    0    3.10699E+03    89.900
PAST   71 000710001   71    0    3.15811E+03    41.000
WATR   72 000720001   72    0    3.17412E+03    58.000
PAST   73 000730001   73    0    3.12494E+03    89.300
PAST   74 000740001   74    0    3.30286E+03    90.500
PAST   75 000750001   75    0    3.26409E+03    52.500
PAST   76 000760001   76    0    3.31621E+03   180.500
PAST   77 000770001   77    0    3.36662E+03    27.500
FRSE   78 000780001   78    0    3.11847E+03   157.800
PAST   79 000790001   79    0    3.12399E+03    49.900
PAST   80 000800001   80    0    3.13641E+03   170.100
PAST   81 000810001   81    0    3.24197E+03    26.000
FRST   82 000820001   82    0    3.11555E+03   125.000
PAST   83 000830001   83    0    3.11818E+03    91.600
PAST   84 000840001   84    0    3.48206E+03    99.400
FRSE   85 000850001   85    0    3.10634E+03   327.500
PAST   86 000860001   86    0    3.18784E+03   132.200
PAST   87 000870001   87    0    3.74150E+03    29.600
PAST   88 000880001   88    0    3.20274E+03    60.400
PAST   89 000890001   89    0    3.42727E+03   152.600
PAST   90 000900001   90    0    3.39662E+03    34.900
PAST   91 000910001   91    0    3.15334E+03   193.500
PAST   92 000920001   92    0    3.25808E+03    53.900
FRSE   93 000930001   93    0    3.11551E+03   273.100
PAST   94 000940001   94    0    3.39370E+03   148.700
PAST   95 000950001   95    0    3.17418E+03    32.700
PAST   96 000960001   96    0    3.20710E+03    74.200
FRSE   97 000970001   97    0    3.12490E+03    99.500
FRSE   98 000980001   98    0    3.14550E+03   227.500
PAST   99 000990001   99    0    3.61922E+03    98.800
PAST  100 001000001  100    0    3.12180E+03    87.300
PAST  101 001010001  101    0    3.14478E+03    59.400
PAST  102 001020001  102    0    3.61232E+02   167.500
FRSE  103 001030001  103    0    3.17364E+03   459.300
PAST  104 001040001  104    0    3.42524E+03    79.200
PAST  105 001050001  105    0    3.84709E+02    57.400
PAST  106 001060001  106    0    3.24296E+03    34.800
FRSE  107 001070001  107    0    3.16936E+03   144.200
FRSE  108 001080001  108    0    3.68486E+02   246.500
PAST  109 001090001  109    0    3.81976E+03   119.900
PAST  110 001100001  110    0    3.16105E+03    38.900
PAST  111 001110001  111    0    3.12197E+03    72.400
PAST  112 001120001  112    0    3.18447E+03    56.400
PAST  113 001130001  113    0    3.11854E+03   121.600
PAST  114 001140001  114    0    3.81507E+02    47.900
PAST  115 001150001  115    0    3.31140E+03    75.600
PAST  116 001160001  116    0    3.43610E+03    62.300
FRSE  117 001170001  117    0    3.20646E+03   145.800
FRSE  118 001180001  118    0    3.16585E+03   150.700
PAST  119 001190001  119    0    3.50722E+02    38.000
PAST  120 001200001  120    0    3.25565E+03    33.200
PAST  121 001210001  121    0    3.14666E+03    53.800
PAST  122 001220001  122    0    3.67959E+02    71.500
FRSE  123 001230001  123    0    3.48747E+02   190.700
PAST  124 001240001  124    0    3.85810E+02    78.100
PAST  125 001250001  125    0    3.25270E+02    71.500
PAST  126 001260001  126    0    3.17332E+03    74.200
PAST  127 001270001  127    0    3.11880E+03    73.500
PAST  128 001280001  128    0    3.12827E+04    82.800
PAST  129 001290001  129    0    3.22720E+03    70.100
PAST  130 001300001  130    0    3.26189E+03    70.100
PAST  131 001310001  131    0    3.14943E+03    24.700
FRST  132 001320001  132    0    3.61248E+02    57.700
PAST  133 001330001  133    0    3.30921E+03    46.200
PAST  134 001340001  134    0    3.50054E+03    93.500
PAST  135 001350001  135    0    3.21416E+03    56.300
PAST  136 001360001  136    0    3.12114E+03    36.800
FRST  137 001370001  137    0    3.19724E+03   138.700
PAST  138 001380001  138    0    3.15087E+03    57.200
PAST  139 001390001  139    0    3.15415E+03    52.700
PAST  140 001400001  140    0    3.30855E+03    38.600
PAST  141 001410001  141    0    3.22135E+03    43.100
FRSE  142 001420001  142    0    3.25887E+03   116.700
PAST  143 001430001  143    0    3.17862E+03    60.000
PAST  144 001440001  144    0    3.12260E+03    68.500
FRSE  145 001450001  145    0    3.26857E+03    89.600
AGRL  146 001460001  146    0    3.61838E+02    94.300
PAST  147 001470001  147    0    3.30747E+03    75.700
FRST  148 001480001  148    0    3.33858E+03    97.500
FRSE  149 001490001  149    0    3.54715E+03   235.200
FRSE  150 001500001  150    0    3.16173E+03   184.600
FRSE  151 001510001  151    0    3.24009E+03   372.900
FRSE  152 001520001  152    0    3.21702E+03   558.800
FRSE  153 001530001  153    0    3.77109E+02   478.600
FRSE  154 001540001  154    0    3.22089E+03   425.200
AGRL    1 000010001    1    0    4.28518E+03    83.600
AGRL    2 000020001    2    0    4.20986E+03    82.900
PAST    3 000030001    3    0    4.15216E+03    73.100
FRSE    4 000040001    4    0    4.30556E+03    43.500
FRSE    5 000050001    5    0    4.33168E+03    40.600
PAST    6 000060001    6    0    4.16762E+03    93.400
PAST    7 000070001    7    0    4.10037E+03    28.500
PAST    8 000080001    8    0    4.42491E+03    50.100
PAST    9 000090001    9    0    4.18618E+03    29.000
AGRL   10 000100001   10    0    4.37817E+03    44.100
PAST   11 000110001   11    0    4.33337E+03    63.300
FRSE   12 000120001   12    0    4.18720E+03    59.300
PAST   13 000130001   13    0    4.63210E+03    84.700
PAST   14 000140001   14    0    4.21341E+03    81.100
AGRL   15 000150001   15    0    4.28249E+03    48.500
PAST   16 000160001   16    0    4.11055E+03    70.700
PAST   17 000170001   17    0    4.28844E+03    69.100
PAST   18 000180001   18    0    4.24251E+03    53.900
PAST   19 000190001   19    0    4.10668E+03    68.000
PAST   20 000200001   20    0    4.10357E+03    20.200
PAST   21 000210001   21    0    4.16889E+03    75.300
PAST   22 000220001   22    0    4.20624E+03    64.400
PAST   23 000230001   23    0    4.36939E+03    66.900
PAST   24 000240001   24    0    4.10298E+03    39.500
PAST   25 000250001   25    0    4.23919E+03    68.800
PAST   26 000260001   26    0    4.14933E+03    61.600
AGRL   27 000270001   27    0    4.13252E+03    70.900
PAST   28 000280001   28    0    4.12694E+03    49.600
PAST   29 000290001   29    0    4.14324E+03    62.900
FRSE   30 000300001   30    0    4.13583E+03    88.000
PAST   31 000310001   31    0    4.18577E+03    81.000
PAST   32 000320001   32    0    4.10397E+03    77.500
AGRL   33 000330001   33    0    4.12179E+03    45.700
PAST   34 000340001   34    0    4.30773E+03    60.400
PAST   35 000350001   35    0    4.23387E+03    50.200
PAST   36 000360001   36    0    4.40608E+03    92.700
PAST   37 000370001   37    0    4.17763E+03    46.800
PAST   38 000380001   38    0    4.17711E+03    80.400
AGRL   39 000390001   39    0    4.25701E+03    36.400
PAST   40 000400001   40    0    4.15666E+03    63.200
FRSE   41 000410001   41    0    4.23714E+03    60.800
PAST   42 000420001   42    0    4.24008E+03    64.300
PAST   43 000430001   43    0    4.18109E+03    79.000
PAST   44 000440001   44    0    4.33961E+03    88.100
AGRL   45 000450001   45    0    4.22281E+03    47.300
PAST   46 000460001   46    0    4.15956E+03    71.400
PAST   47 000470001   47    0    4.22897E+03    74.500
PAST   48 000480001   48    0    4.35950E+03    41.400
PAST   49 000490001   49    0    4.14589E+03    89.700
PAST   50 000500001   50    0    4.17417E+03    40.500
PAST   51 000510001   51    0    4.40801E+03    36.000
FRST   52 000520001   52    0    4.18071E+03    72.500
FRSE   53 000530001   53    0    4.11582E+03    45.700
FRSE   54 000540001   54    0    4.16153E+03    38.400
PAST   55 000550001   55    0    4.18542E+03    40.000
PAST   56 000560001   56    0    4.14568E+03    66.200
PAST   57 000570001   57    0    4.14745E+03    64.600
PAST   58 000580001   58    0    4.16926E+03    45.600
FRSE   59 000590001   59    0    4.25926E+03   154.000
PAST   60 000600001   60    0    4.15650E+03    17.800
PAST   61 000610001   61    0    4.12084E+03    32.300
AGRL   62 000620001   62    0    4.12606E+03    74.600
PAST   63 000630001   63    0    4.26953E+03    69.100
PAST   64 000640001   64    0    4.19570E+03    73.400
FRSE   65 000650001   65    0    4.13003E+03   261.100
PAST   66 000660001   66    0    4.16010E+03    79.400
PAST   67 000670001   67    0    4.24378E+03    79.900
FRSE   68 000680001   68    0    4.36749E+03    44.400
PAST   69 000690001   69    0    4.13270E+03    56.200
PAST   70 000700001   70    0    4.10699E+03    75.900
PAST   71 000710001   71    0    4.15811E+03    55.200
WATR   72 000720001   72    0    4.17412E+03    60.800
PAST   73 000730001   73    0    4.12494E+03    64.900
PAST   74 000740001   74    0    4.30286E+03    61.500
PAST   75 000750001   75    0    4.26409E+03    40.200
PAST   76 000760001   76    0    4.31621E+03    51.000
PAST   77 000770001   77    0    4.36662E+03    24.800
FRSE   78 000780001   78    0    4.11847E+03    52.400
PAST   79 000790001   79    0    4.12399E+03    55.900
PAST   80 000800001   80    0    4.13641E+03    72.500
PAST   81 000810001   81    0    4.24197E+03    34.900
FRST   82 000820001   82    0    4.11555E+03    71.500
PAST   83 000830001   83    0    4.11818E+03    63.500
PAST   84 000840001   84    0    4.48206E+03    89.500
FRSE   85 000850001   85    0    4.10634E+03   153.800
PAST   86 000860001   86    0    4.18784E+03    68.900
PAST   87 000870001   87    0    4.74150E+03    26.600
PAST   88 000880001   88    0    4.20274E+03    49.700
PAST   89 000890001   89    0    4.42727E+03   103.800
PAST   90 000900001   90    0    4.39662E+03    50.600
PAST   91 000910001   91    0    4.15334E+03    72.900
PAST   92 000920001   92    0    4.25808E+03    64.400
FRSE   93 000930001   93    0    4.11551E+03   112.400
PAST   94 000940001   94    0    4.39370E+03    65.800
PAST   95 000950001   95    0    4.17418E+03    22.900
PAST   96 000960001   96    0    4.20710E+03    63.200
FRSE   97 000970001   97    0    4.12490E+03    57.100
FRSE   98 000980001   98    0    4.14550E+03    81.400
PAST   99 000990001   99    0    4.61922E+03    59.200
PAST  100 001000001  100    0    4.12180E+03    59.900
PAST  101 001010001  101    0    4.14478E+03    52.900
PAST  102 001020001  102    0    4.61232E+02    76.200
FRSE  103 001030001  103    0    4.17364E+03   345.200
PAST  104 001040001  104    0    4.42524E+03    70.000
PAST  105 001050001  105    0    4.84709E+02    72.000
PAST  106 001060001  106    0    4.24296E+03    60.700
FRSE  107 001070001  107    0    4.16936E+03    31.500
FRSE  108 001080001  108    0    4.68486E+02   167.600
PAST  109 001090001  109    0    4.81976E+03    78.000
PAST  110 001100001  110    0    4.16105E+03    29.200
PAST  111 001110001  111    0    4.12197E+03    65.400
PAST  112 001120001  112    0    4.18447E+03    30.800
PAST  113 001130001  113    0    4.11854E+03    64.100
PAST  114 001140001  114    0    4.81507E+02    47.300
PAST  115 001150001  115    0    4.31140E+03    49.800
PAST  116 001160001  116    0    4.43610E+03    78.700
FRSE  117 001170001  117    0    4.20646E+03    39.900
FRSE  118 001180001  118    0    4.16585E+03    79.200
PAST  119 001190001  119    0    4.50722E+02    21.200
PAST  120 001200001  120    0    4.25565E+03    26.400
PAST  121 001210001  121    0    4.14666E+03    62.800
PAST  122 001220001  122    0    4.67959E+02    50.500
FRSE  123 001230001  123    0    4.48747E+02    68.200
PAST  124 001240001  124    0    4.85810E+02    52.200
PAST  125 001250001  125    0    4.25270E+02    50.500
PAST  126 001260001  126    0    4.17332E+03    54.300
PAST  127 001270001  127    0    4.11880E+03    39.300
PAST  128 001280001  128    0    4.12827E+04    64.300
PAST  129 001290001  129    0    4.22720E+03    85.000
PAST  130 001300001  130    0    4.26189E+03    61.400
PAST  131 001310001  131    0    4.14943E+03    41.000
FRST  132 001320001  132    0    4.61248E+02    25.000
PAST  133 001330001  133    0    4.30921E+03    44.900
PAST  134 001340001  134    0    4.50054E+03    36.300
PAST  135 001350001  135    0    4.21416E+03    57.900
PAST  136 001360001  136    0    4.12114E+03    43.200
FRST  137 001370001  137    0    4.19724E+03    57.800
PAST  138 001380001  138    0    4.15087E+03    41.300
PAST  139 001390001  139    0    4.15415E+03    41.400
PAST  140 001400001  140    0    4.30855E+03    60.000
PAST  141 001410001  141    0    4.22135E+03    31.000
FRSE  142 001420001  142    0    4.25887E+03    55.000
PAST  143 001430001  143    0    4.17862E+03    46.200
PAST  144 001440001  144    0    4.12260E+03    28.500
FRSE  145 001450001  145    0    4.26857E+03    38.100
AGRL  146 001460001  146    0    4.61838E+02    25.900
PAST  147 001470001  147    0    4.30747E+03    56.200
FRST  148 001480001  148    0    4.33858E+03    42.700
FRSE  149 001490001  149    0    4.54715E+03   123.800
FRSE  150 001500001  150    0    4.16173E+03    71.300
FRSE  151 001510001  151    0    4.24009E+03   277.200
FRSE  152 001520001  152    0    4.21702E+03   428.400
FRSE  153 001530001  153    0    4.77109E+02   451.800
FRSE  154 001540001  154    0    4.22089E+03   383.100
AGRL    1 000010001    1    0    5.28518E+03     2.900
AGRL    2 000020001    2    0    5.20986E+03     3.700
PAST    3 000030001    3    0    5.15216E+03     1.000
FRSE    4 000040001    4    0    5.30556E+03     3.200
FRSE    5 000050001    5    0    5.33168E+03     4.200
PAST    6 000060001    6    0    5.16762E+03     0.600
PAST    7 000070001    7    0    5.10037E+03     8.500
PAST    8 000080001    8    0    5.42491E+03     5.400
PAST    9 000090001    9    0    5.18618E+03     5.300
AGRL   10 000100001   10    0    5.37817E+03     3.600
PAST   11 000110001   11    0    5.33337E+03     0.000
FRSE   12 000120001   12    0    5.18720E+03     2.100
PAST   13 000130001   13    0    5.63210E+03     1.400
PAST   14 000140001   14    0    5.21341E+03     0.700
AGRL   15 000150001   15    0    5.28249E+03     2.600
PAST   16 000160001   16    0    5.11055E+03     2.000
PAST   17 000170001   17    0    5.28844E+03     0.000
PAST   18 000180001   18    0    5.24251E+03     0.100
PAST   19 000190001   19    0    5.10668E+03     0.400
PAST   20 000200001   20    0    5.10357E+03     5.800
PAST   21 000210001   21    0    5.16889E+03     3.300
PAST   22 000220001   22    0    5.20624E+03     0.100
PAST   23 000230001   23    0    5.36939E+03     2.200
PAST   24 000240001   24    0    5.10298E+03     0.300
PAST   25 000250001   25    0    5.23919E+03     5.100
PAST   26 000260001   26    0    5.14933E+03     6.100
AGRL   27 000270001   27    0    5.13252E+03     4.700
PAST   28 000280001   28    0    5.12694E+03     3.400
PAST   29 000290001   29    0    5.14324E+03     2.200
FRSE   30 000300001   30    0    5.13583E+03     1.700
PAST   31 000310001   31    0    5.18577E+03     1.600
PAST   32 000320001   32    0    5.10397E+03     4.800
AGRL   33 000330001   33    0    5.12179E+03     4.800
PAST   34 000340001   34    0    5.30773E+03     1.300
PAST   35 000350001   35    0    5.23387E+03     0.300
PAST   36 000360001   36    0    5.40608E+03     1.100
PAST   37 000370001   37    0    5.17763E+03     3.000
PAST   38 000380001   38    0    5.17711E+03     2.600
AGRL   39 000390001   39    0    5.25701E+03     2.300
PAST   40 000400001   40    0    5.15666E+03     0.000
FRSE   41 000410001   41    0    5.23714E+03     3.500
PAST   42 000420001   42    0    5.24008E+03     0.400
PAST   43 000430001   43    0    5.18109E+03     3.300
PAST   44 000440001   44    0    5.33961E+03     1.300
AGRL   45 000450001   45    0    5.22281E+03     1.400
PAST   46 000460001   46    0    5.15956E+03     2.400
PAST   47 000470001   47    0    5.22897E+03     2.500
PAST   48 000480001   48    0    5.35950E+03     0.700
PAST   49 000490001   49    0    5.14589E+03     9.100
PAST   50 000500001   50    0    5.17417E+03     8.400
PAST   51 000510001   51    0    5.40801E+03     3.800
FRST   52 000520001   52    0    5.18071E+03     0.300
FRSE   53 000530001   53    0    5.11582E+03     6.300
FRSE   54 000540001   54    0    5.16153E+03     3.300
PAST   55 000550001   55    0    5.18542E+03     3.200
PAST   56 000560001   56    0    5.14568E+03     7.400
PAST   57 000570001   57    0    5.14745E+03     1.900
PAST   58 000580001   58    0    5.16926E+03     1.100
FRSE   59 000590001   59    0    5.25926E+03     2.100
PAST   60 000600001   60    0    5.15650E+03     0.600
PAST   61 000610001   61    0    5.12084E+03     2.800
AGRL   62 000620001   62    0    5.12606E+03     3.900
PAST   63 000630001   63    0    5.26953E+03     1.100
PAST   64 000640001   64    0    5.19570E+03     1.600
FRSE   65 000650001   65    0    5.13003E+03    10.700
PAST   66 000660001   66    0    5.16010E+03    12.600
PAST   67 000670001   67    0    5.24378E+03     2.600
FRSE   68 000680001   68    0    5.36749E+03     5.200
PAST   69 000690001   69    0    5.13270E+03     1.100
PAST   70 000700001   70    0    5.10699E+03    10.200
PAST   71 000710001   71    0    5.15811E+03     6.200
WATR   72 000720001   72    0    5.17412E+03     3.400
PAST   73 000730001   73    0    5.12494E+03     1.500
PAST   74 000740001   74    0    5.30286E+03     2.400
PAST   75 000750001   75    0    5.26409E+03     0.300
PAST   76 000760001   76    0    5.31621E+03     2.300
PAST   77 000770001   77    0    5.36662E+03     3.100
FRSE   78 000780001   78    0    5.11847E+03     6.900
PAST   79 000790001   79    0    5.12399E+03     0.400
PAST   80 000800001   80    0    5.13641E+03     1.100
PAST   81 000810001   81    0    5.24197E+03     8.600
FRST   82 000820001   82    0    5.11555E+03     2.400
PAST   83 000830001   83    0    5.11818E+03     2.200
PAST   84 000840001   84    0    5.48206E+03     0.700
FRSE   85 000850001   85    0    5.10634E+03     2.100
PAST   86 000860001   86    0    5.18784E+03     0.700
PAST   87 000870001   87    0    5.74150E+03     3.700
PAST   88 000880001   88    0    5.20274E+03     3.700
PAST   89 000890001   89    0    5.42727E+03     1.200
PAST   90 000900001   90    0    5.39662E+03     6.000
PAST   91 000910001   91    0    5.15334E+03     4.400
PAST   92 000920001   92    0    5.25808E+03     0.700
FRSE   93 000930001   93    0    5.11551E+03     2.700
PAST   94 000940001   94    0    5.39370E+03     1.800
PAST   95 000950001   95    0    5.17418E+03     4.200
PAST   96 000960001   96    0    5.20710E+03     3.400
FRSE   97 000970001   97    0    5.12490E+03     7.200
FRSE   98 000980001   98    0    5.14550E+03     0.600
PAST   99 000990001   99    0    5.61922E+03     2.600
PAST  100 001000001  100    0    5.12180E+03     2.400
PAST  101 001010001  101    0    5.14478E+03     0.800
PAST  102 001020001  102    0    5.61232E+02     4.800
FRSE  103 001030001  103    0    5.17364E+03     8.000
PAST  104 001040001  104    0    5.42524E+03     6.900
PAST  105 001050001  105    0    5.84709E+02     6.900
PAST  106 001060001  106    0    5.24296E+03     0.200
FRSE  107 001070001  107    0    5.16936E+03     7.000
FRSE  108 001080001  108    0    5.68486E+02     4.300
PAST  109 001090001  109    0    5.81976E+03     2.700
PAST  110 001100001  110    0    5.16105E+03     1.800
PAST  111 001110001  111    0    5.12197E+03     0.700
PAST  112 001120001  112    0    5.18447E+03     0.100
PAST  113 001130001  113    0    5.11854E+03     5.200
PAST  114 001140001  114    0    5.81507E+02     1.000
PAST  115 001150001  115    0    5.31140E+03     0.600
PAST  116 001160001  116    0    5.43610E+03     6.300
FRSE  117 001170001  117    0    5.20646E+03     6.400
FRSE  118 001180001  118    0    5.16585E+03     7.000
PAST  119 001190001  119    0    5.50722E+02     3.900
PAST  120 001200001  120    0    5.25565E+03     5.200
PAST  121 001210001  121    0    5.14666E+03     1.100
PAST  122 001220001  122    0    5.67959E+02     1.700
FRSE  123 001230001  123    0    5.48747E+02     7.100
PAST  124 001240001  124    0    5.85810E+02     0.500
PAST  125 001250001  125    0    5.25270E+02     1.700
PAST  126 001260001  126    0    5.17332E+03     1.200
PAST  127 001270001  127    0    5.11880E+03     0.300
PAST  128 001280001  128    0    5.12827E+04     2.400
PAST  129 001290001  129    0    5.22720E+03    11.600
PAST  130 001300001  130    0    5.26189E+03     0.000
PAST  131 001310001  131    0    5.14943E+03     0.400
FRST  132 001320001  132    0    5.61248E+02     2.500
PAST  133 001330001  133    0    5.30921E+03     3.900
PAST  134 001340001  134    0    5.50054E+03     0.800
PAST  135 001350001  135    0    5.21416E+03     0.100
PAST  136 001360001  136    0    5.12114E+03     0.700
FRST  137 001370001  137    0    5.19724E+03     0.000
PAST  138 001380001  138    0    5.15087E+03     0.500
PAST  139 001390001  139    0    5.15415E+03     1.100
PAST  140 001400001  140    0    5.30855E+03     0.700
PAST  141 001410001  141    0    5.22135E+03     4.400
FRSE  142 001420001  142    0    5.25887E+03     0.400
PAST  143 001430001  143    0    5.17862E+03     4.300
PAST  144 001440001  144    0    5.12260E+03     0.700
FRSE  145 001450001  145    0    5.26857E+03     1.400
AGRL  146 001460001  146    0    5.61838E+02     1.600
PAST  147 001470001  147    0    5.30747E+03     1.100
FRST  148 001480001  148    0    5.33858E+03     1.500
FRSE  149 001490001  149    0    5.54715E+03     5.000
FRSE  150 001500001  150    0    5.16173E+03     7.200
FRSE  151 001510001  151    0    5.24009E+03     4.600
FRSE  152 001520001  152    0    5.21702E+03    10.900
FRSE  153 001530001  153    0    5.77109E+02    19.400
FRSE  154 001540001  154    0    5.22089E+03    23.500
AGRL    1 000010001    1    0    6.28518E+03     2.900
AGRL    2 000020001    2    0    6.20986E+03     3.300
PAST    3 000030001    3    0    6.15216E+03     0.200
FRSE    4 000040001    4    0    6.30556E+03     6.600
FRSE    5 000050001    5    0    6.33168E+03     3.400
PAST    6 000060001    6    0    6.16762E+03     0.000
PAST    7 000070001    7    0    6.10037E+03     1.400
PAST    8 000080001    8    0    6.42491E+03     3.900
PAST    9 000090001    9    0    6.18618E+03     8.000
AGRL   10 000100001   10    0    6.37817E+03     4.200
PAST   11 000110001   11    0    6.33337E+03     1.000
FRSE   12 000120001   12    0    6.18720E+03     5.300
PAST   13 000130001   13    0    6.63210E+03     2.300
PAST   14 000140001   14    0    6.21341E+03     1.300
AGRL   15 000150001   15    0    6.28249E+03     1.200
PAST   16 000160001   16    0    6.11055E+03     2.200
PAST   17 000170001   17    0    6.28844E+03     1.300
PAST   18 000180001   18    0    6.24251E+03     4.200
PAST   19 000190001   19    0    6.10668E+03     0.300
PAST   20 000200001   20    0    6.10357E+03     1.700
PAST   21 000210001   21    0    6.16889E+03     4.300
PAST   22 000220001   22    0    6.20624E+03     0.200
PAST   23 000230001   23    0    6.36939E+03     4.000
PAST   24 000240001   24    0    6.10298E+03     2.600
PAST   25 000250001   25    0    6.23919E+03     0.700
PAST   26 000260001   26    0    6.14933E+03     2.200
AGRL   27 000270001   27    0    6.13252E+03     6.100
PAST   28 000280001   28    0    6.12694E+03     4.400
PAST   29 000290001   29    0    6.14324E+03     5.600
FRSE   30 000300001   30    0    6.13583E+03     6.300
PAST   31 000310001   31    0    6.18577E+03     0.600
PAST   32 000320001   32    0    6.10397E+03     1.700
AGRL   33 000330001   33    0    6.12179E+03     6.100
PAST   34 000340001   34    0    6.30773E+03     2.800
PAST   35 000350001   35    0    6.23387E+03     1.200
PAST   36 000360001   36    0    6.40608E+03     4.100
PAST   37 000370001   37    0    6.17763E+03     0.900
PAST   38 000380001   38    0    6.17711E+03     0.900
AGRL   39 000390001   39    0    6.25701E+03     0.900
PAST   40 000400001   40    0    6.15666E+03     0.400
FRSE   41 000410001   41    0    6.23714E+03    12.700
PAST   42 000420001   42    0    6.24008E+03     3.200
PAST   43 000430001   43    0    6.18109E+03     0.800
PAST   44 000440001   44    0    6.33961E+03     1.200
AGRL   45 000450001   45    0    6.22281E+03     0.900
PAST   46 000460001   46    0    6.15956E+03     4.600
PAST   47 000470001   47    0    6.22897E+03     3.900
PAST   48 000480001   48    0    6.35950E+03     2.600
PAST   49 000490001   49    0    6.14589E+03     1.000
PAST   50 000500001   50    0    6.17417E+03     1.600
PAST   51 000510001   51    0    6.40801E+03     4.900
FRST   52 000520001   52    0    6.18071E+03     0.900
FRSE   53 000530001   53    0    6.11582E+03    10.100
FRSE   54 000540001   54    0    6.16153E+03     2.600
PAST   55 000550001   55    0    6.18542E+03     0.000
PAST   56 000560001   56    0    6.14568E+03     2.400
PAST   57 000570001   57    0    6.14745E+03     5.000
PAST   58 000580001   58    0    6.16926E+03     2.600
FRSE   59 000590001   59    0    6.25926E+03     8.400
PAST   60 000600001   60    0    6.15650E+03     1.400
PAST   61 000610001   61    0    6.12084E+03     1.700
AGRL   62 000620001   62    0    6.12606E+03     3.700
PAST   63 000630001   63    0    6.26953E+03     3.300
PAST   64 000640001   64    0    6.19570E+03     4.700
FRSE   65 000650001   65    0    6.13003E+03    24.300
PAST   66 000660001   66    0    6.16010E+03     1.800
PAST   67 000670001   67    0    6.24378E+03     0.600
FRSE   68 000680001   68    0    6.36749E+03     9.800
PAST   69 000690001   69    0    6.13270E+03     0.200
PAST   70 000700001   70    0    6.10699E+03     1.700
PAST   71 000710001   71    0    6.15811E+03     1.400
WATR   72 000720001   72    0    6.17412E+03     5.400
PAST   73 000730001   73    0    6.12494E+03     1.800
PAST   74 000740001   74    0    6.30286E+03    10.000
PAST   75 000750001   75    0    6.26409E+03     0.500
PAST   76 000760001   76    0    6.31621E+03     0.100
PAST   77 000770001   77    0    6.36662E+03     4.000
FRSE   78 000780001   78    0    6.11847E+03     8.400
PAST   79 000790001   79    0    6.12399E+03     1.300
PAST   80 000800001   80    0    6.13641E+03     0.900
PAST   81 000810001   81    0    6.24197E+03     2.200
FRST   82 000820001   82    0    6.11555E+03     4.200
PAST   83 000830001   83    0    6.11818E+03     3.800
PAST   84 000840001   84    0    6.48206E+03     3.400
FRSE   85 000850001   85    0    6.10634E+03     8.400
PAST   86 000860001   86    0    6.18784E+03     2.100
PAST   87 000870001   87    0    6.74150E+03     4.400
PAST   88 000880001   88    0    6.20274E+03    13.800
PAST   89 000890001   89    0    6.42727E+03     4.200
PAST   90 000900001   90    0    6.39662E+03     2.800
PAST   91 000910001   91    0    6.15334E+03     4.500
PAST   92 000920001   92    0    6.25808E+03     2.400
FRSE   93 000930001   93    0    6.11551E+03     9.400
PAST   94 000940001   94    0    6.39370E+03     0.600
PAST   95 000950001   95    0    6.17418E+03     2.300
PAST   96 000960001   96    0    6.20710E+03     4.800
FRSE   97 000970001   97    0    6.12490E+03     3.000
FRSE   98 000980001   98    0    6.14550E+03     2.600
PAST   99 000990001   99    0    6.61922E+03     3.000
PAST  100 001000001  100    0    6.12180E+03     6.200
PAST  101 001010001  101    0    6.14478E+03     2.500
PAST  102 001020001  102    0    6.61232E+02     0.600
FRSE  103 001030001  103    0    6.17364E+03    18.200
PAST  104 001040001  104    0    6.42524E+03     0.600
PAST  105 001050001  105    0    6.84709E+02     1.800
PAST  106 001060001  106    0    6.24296E+03     3.400
FRSE  107 001070001  107    0    6.16936E+03     8.200
FRSE  108 001080001  108    0    6.68486E+02    10.800
PAST  109 001090001  109    0    6.81976E+03     1.400
PAST  110 001100001  110    0    6.16105E+03     1.500
PAST  111 001110001  111    0    6.12197E+03     3.100
PAST  112 001120001  112    0    6.18447E+03     0.800
PAST  113 001130001  113    0    6.11854E+03     2.100
PAST  114 001140001  114    0    6.81507E+02     1.700
PAST  115 001150001  115    0    6.31140E+03     3.400
PAST  116 001160001  116    0    6.43610E+03     1.800
FRSE  117 001170001  117    0    6.20646E+03     7.000
FRSE  118 001180001  118    0    6.16585E+03     4.300
PAST  119 001190001  119    0    6.50722E+02     0.800
PAST  120 001200001  120    0    6.25565E+03     2.000
PAST  121 001210001  121    0    6.14666E+03     2.800
PAST  122 001220001  122    0    6.67959E+02     1.100
FRSE  123 001230001  123    0    6.48747E+02     8.800
PAST  124 001240001  124    0    6.85810E+02     7.700
PAST  125 001250001  125    0    6.25270E+02     1.100
PAST  126 001260001  126    0    6.17332E+03     6.500
PAST  127 001270001  127    0    6.11880E+03     4.300
PAST  128 001280001  128    0    6.12827E+04     0.900
PAST  129 001290001  129    0    6.22720E+03     1.500
PAST  130 001300001  130    0    6.26189E+03     7.400
PAST  131 001310001  131    0    6.14943E+03     1.900
FRST  132 001320001  132    0    6.61248E+02     1.400
PAST  133 001330001  133    0    6.30921E+03     2.300
PAST  134 001340001  134    0    6.50054E+03     1.200
PAST  135 001350001  135    0    6.21416E+03     1.400
PAST  136 001360001  136    0    6.12114E+03     1.800
FRST  137 001370001  137    0    6.19724E+03     2.900
PAST  138 001380001  138    0    6.15087E+03     1.400
PAST  139 001390001  139    0    6.15415E+03     2.600
PAST  140 001400001  140    0    6.30855E+03     1.300
PAST  141 001410001  141    0    6.22135E+03     1.500
FRSE  142 001420001  142    0    6.25887E+03     2.800
PAST  143 001430001  143    0    6.17862E+03     2.200
PAST  144 001440001  144    0    6.12260E+03     0.600
FRSE  145 001450001  145    0    6.26857E+03     0.500
AGRL  146 001460001  146    0    6.61838E+02     0.200
PAST  147 001470001  147    0    6.30747E+03     5.800
FRST  148 001480001  148    0    6.33858E+03     1.100
FRSE  149 001490001  149    0    6.54715E+03    12.500
FRSE  150 001500001  150    0    6.16173E+03     8.000
FRSE  151 001510001  151    0    6.24009E+03    14.000
FRSE  152 001520001  152    0    6.21702E+03    24.900
FRSE  153 001530001  153    0    6.77109E+02    26.700
FRSE  154 001540001  154    0    6.22089E+03    33.400
AGRL    1 000010001    1    0    7.28518E+03     8.500
AGRL    2 000020001    2    0    7.20986E+03     5.900
PAST    3 000030001    3    0    7.15216E+03     5.800
FRSE    4 000040001    4    0    7.30556E+03     5.600
FRSE    5 000050001    5    0    7.33168E+03     4.500
PAST    6 000060001    6    0    7.16762E+03     0.000
PAST    7 000070001    7    0    7.10037E+03     0.000
PAST    8 000080001    8    0    7.42491E+03     0.300
PAST    9 000090001    9    0    7.18618E+03    13.700
AGRL   10 000100001   10    0    7.37817E+03     5.900
PAST   11 000110001   11    0    7.33337E+03     4.700
FRSE   12 000120001   12    0    7.18720E+03     3.600
PAST   13 000130001   13    0    7.63210E+03     3.300
PAST   14 000140001   14    0    7.21341E+03     0.000
AGRL   15 000150001   15    0    7.28249E+03     3.400
PAST   16 000160001   16    0    7.11055E+03    11.900
PAST   17 000170001   17    0    7.28844E+03     2.200
PAST   18 000180001   18    0    7.24251E+03     3.600
PAST   19 000190001   19    0    7.10668E+03     0.200
PAST   20 000200001   20    0    7.10357E+03     0.000
PAST   21 000210001   21    0    7.16889E+03     8.100
PAST   22 000220001   22    0    7.20624E+03     7.500
PAST   23 000230001   23    0    7.36939E+03     8.400
PAST   24 000240001   24    0    7.10298E+03     4.000
PAST   25 000250001   25    0    7.23919E+03     0.500
PAST   26 000260001   26    0    7.14933E+03     0.800
AGRL   27 000270001   27    0    7.13252E+03     7.800
PAST   28 000280001   28    0    7.12694E+03     8.100
PAST   29 000290001   29    0    7.14324E+03    14.400
FRSE   30 000300001   30    0    7.13583E+03     4.400
PAST   31 000310001   31    0    7.18577E+03     0.300
PAST   32 000320001   32    0    7.10397E+03     0.600
AGRL   33 000330001   33    0    7.12179E+03     9.100
PAST   34 000340001   34    0    7.30773E+03     6.400
PAST   35 000350001   35    0    7.23387E+03     2.500
PAST   36 000360001   36    0    7.40608E+03     7.200
PAST   37 000370001   37    0    7.17763E+03     1.300
PAST   38 000380001   38    0    7.17711E+03     0.300
AGRL   39 000390001   39    0    7.25701E+03     3.200
PAST   40 000400001   40    0    7.15666E+03     8.900
FRSE   41 000410001   41    0    7.23714E+03     5.900
PAST   42 000420001   42    0    7.24008E+03     5.400
PAST   43 000430001   43    0    7.18109E+03     0.300
PAST   44 000440001   44    0    7.33961E+03     0.000
AGRL   45 000450001   45    0    7.22281E+03     4.200
PAST   46 000460001   46    0    7.15956E+03    12.100
PAST   47 000470001   47    0    7.22897E+03     9.000
PAST   48 000480001   48    0    7.35950E+03     3.400
PAST   49 000490001   49    0    7.14589E+03     1.000
PAST   50 000500001   50    0    7.17417E+03     1.500
PAST   51 000510001   51    0    7.40801E+03     7.000
FRST   52 000520001   52    0    7.18071E+03    12.700
FRSE   53 000530001   53    0    7.11582E+03     8.600
FRSE   54 000540001   54    0    7.16153E+03     3.400
PAST   55 000550001   55    0    7.18542E+03     0.800
PAST   56 000560001   56    0    7.14568E+03     1.300
PAST   57 000570001   57    0    7.14745E+03    10.500
PAST   58 000580001   58    0    7.16926E+03     4.400
FRSE   59 000590001   59    0    7.25926E+03     6.100
PAST   60 000600001   60    0    7.15650E+03     0.400
PAST   61 000610001   61    0    7.12084E+03     0.700
AGRL   62 000620001   62    0    7.12606E+03     6.600
PAST   63 000630001   63    0    7.26953E+03    12.300
PAST   64 000640001   64    0    7.19570E+03    13.800
FRSE   65 000650001   65    0    7.13003E+03    17.000
PAST   66 000660001   66    0    7.16010E+03     0.900
PAST   67 000670001   67    0    7.24378E+03     0.400
FRSE   68 000680001   68    0    7.36749E+03     5.400
PAST   69 000690001   69    0    7.13270E+03     3.500
PAST   70 000700001   70    0    7.10699E+03     0.700
PAST   71 000710001   71    0    7.15811E+03     1.900
WATR   72 000720001   72    0    7.17412E+03     8.400
PAST   73 000730001   73    0    7.12494E+03    10.200
PAST   74 000740001   74    0    7.30286E+03     7.200
PAST   75 000750001   75    0    7.26409E+03     0.700
PAST   76 000760001   76    0    7.31621E+03     0.000
PAST   77 000770001   77    0    7.36662E+03     1.000
FRSE   78 000780001   78    0    7.11847E+03     7.000
PAST   79 000790001   79    0    7.12399E+03     2.800
PAST   80 000800001   80    0    7.13641E+03     0.100
PAST   81 000810001   81    0    7.24197E+03     2.800
FRST   82 000820001   82    0    7.11555E+03     9.000
PAST   83 000830001   83    0    7.11818E+03    11.000
PAST   84 000840001   84    0    7.48206E+03     9.500
FRSE   85 000850001   85    0    7.10634E+03     6.400
PAST   86 000860001   86    0    7.18784E+03     0.300
PAST   87 000870001   87    0    7.74150E+03     0.300
PAST   88 000880001   88    0    7.20274E+03     7.800
PAST   89 000890001   89    0    7.42727E+03     4.900
PAST   90 000900001   90    0    7.39662E+03     2.300
PAST   91 000910001   91    0    7.15334E+03     6.900
PAST   92 000920001   92    0    7.25808E+03     5.700
FRSE   93 000930001   93    0    7.11551E+03     6.400
PAST   94 000940001   94    0    7.39370E+03     1.000
PAST   95 000950001   95    0    7.17418E+03     0.400
PAST   96 000960001   96    0    7.20710E+03    10.400
FRSE   97 000970001   97    0    7.12490E+03     3.300
FRSE   98 000980001   98    0    7.14550E+03     1.900
PAST   99 000990001   99    0    7.61922E+03    10.200
PAST  100 001000001  100    0    7.12180E+03    10.700
PAST  101 001010001  101    0    7.14478E+03     5.200
PAST  102 001020001  102    0    7.61232E+02     0.400
FRSE  103 001030001  103    0    7.17364E+03    14.500
PAST  104 001040001  104    0    7.42524E+03     0.800
PAST  105 001050001  105    0    7.84709E+02     0.700
PAST  106 001060001  106    0    7.24296E+03     6.700
FRSE  107 001070001  107    0    7.16936E+03     6.700
FRSE  108 001080001  108    0    7.68486E+02     8.800
PAST  109 001090001  109    0    7.81976E+03     0.400
PAST  110 001100001  110    0    7.16105E+03     0.400
PAST  111 001110001  111    0    7.12197E+03    10.200
PAST  112 001120001  112    0    7.18447E+03     2.600
PAST  113 001130001  113    0    7.11854E+03     0.300
PAST  114 001140001  114    0    7.81507E+02     4.400
PAST  115 001150001  115    0    7.31140E+03     5.200
PAST  116 001160001  116    0    7.43610E+03     0.700
FRSE  117 001170001  117    0    7.20646E+03     6.100
FRSE  118 001180001  118    0    7.16585E+03     3.800
PAST  119 001190001  119    0    7.50722E+02     0.200
PAST  120 001200001  120    0    7.25565E+03     0.700
PAST  121 001210001  121    0    7.14666E+03    11.300
PAST  122 001220001  122    0    7.67959E+02     0.700
FRSE  123 001230001  123    0    7.48747E+02     5.600
PAST  124 001240001  124    0    7.85810E+02     4.400
PAST  125 001250001  125    0    7.25270E+02     0.700
PAST  126 001260001  126    0    7.17332E+03     9.900
PAST  127 001270001  127    0    7.11880E+03     3.900
PAST  128 001280001  128    0    7.12827E+04     0.700
PAST  129 001290001  129    0    7.22720E+03     0.600
PAST  130 001300001  130    0    7.26189E+03     4.100
PAST  131 001310001  131    0    7.14943E+03     4.000
FRST  132 001320001  132    0    7.61248E+02     0.400
PAST  133 001330001  133    0    7.30921E+03     0.800
PAST  134 001340001  134    0    7.50054E+03     0.500
PAST  135 001350001  135    0    7.21416E+03     6.900
PAST  136 001360001  136    0    7.12114E+03     3.600
FRST  137 001370001  137    0    7.19724E+03     0.900
PAST  138 001380001  138    0    7.15087E+03     5.200
PAST  139 001390001  139    0    7.15415E+03     3.400
PAST  140 001400001  140    0    7.30855E+03     1.700
PAST  141 001410001  141    0    7.22135E+03     0.500
FRSE  142 001420001  142    0    7.25887E+03     2.600
PAST  143 001430001  143    0    7.17862E+03     1.100
PAST  144 001440001  144    0    7.12260E+03     2.400
FRSE  145 001450001  145    0    7.26857E+03     3.900
AGRL  146 001460001  146    0    7.61838E+02     2.800
PAST  147 001470001  147    0    7.30747E+03     3.400
FRST  148 001480001  148    0    7.33858E+03     3.400
FRSE  149 001490001  149    0    7.54715E+03     8.100
FRSE  150 001500001  150    0    7.16173E+03     5.700
FRSE  151 001510001  151    0    7.24009E+03    10.500
FRSE  152 001520001  152    0    7.21702E+03    15.700
FRSE  153 001530001  153    0    7.77109E+02    18.900
FRSE  154 001540001  154    0    7.22089E+03    23.400
AGRL    1 000010001    1    0    8.28518E+03    13.000
AGRL    2 000020001    2    0    8.20986E+03     9.600
PAST    3 000030001    3    0    8.15216E+03     8.800
FRSE    4 000040001    4    0    8.30556E+03    35.700
FRSE    5 000050001    5    0    8.33168E+03    28.700
PAST    6 000060001    6    0    8.16762E+03    67.200
PAST    7 000070001    7    0    8.10037E+03     9.600
PAST    8 000080001    8    0    8.42491E+03    18.600
PAST    9 000090001    9    0    8.18618E+03    12.600
AGRL   10 000100001   10    0    8.37817E+03    10.900
PAST   11 000110001   11    0    8.33337E+03     7.400
FRSE   12 000120001   12    0    8.18720E+03    31.400
PAST   13 000130001   13    0    8.63210E+03    20.800
PAST   14 000140001   14    0    8.21341E+03    27.000
AGRL   15 000150001   15    0    8.28249E+03     4.800
PAST   16 000160001   16    0    8.11055E+03    13.900
PAST   17 000170001   17    0    8.28844E+03     7.600
PAST   18 000180001   18    0    8.24251E+03    22.200
PAST   19 000190001   19    0    8.10668E+03    49.000
PAST   20 000200001   20    0    8.10357E+03     6.600
PAST   21 000210001   21    0    8.16889E+03    14.200
PAST   22 000220001   22    0    8.20624E+03     8.900
PAST   23 000230001   23    0    8.36939E+03     8.300
PAST   24 000240001   24    0    8.10298E+03    29.900
PAST   25 000250001   25    0    8.23919E+03    37.600
PAST   26 000260001   26    0    8.14933E+03    22.500
AGRL   27 000270001   27    0    8.13252E+03    11.800
PAST   28 000280001   28    0    8.12694E+03    12.900
PAST   29 000290001   29    0    8.14324E+03     7.300
FRSE   30 000300001   30    0    8.13583E+03    36.000
PAST   31 000310001   31    0    8.18577E+03    33.700
PAST   32 000320001   32    0    8.10397E+03    53.500
AGRL   33 000330001   33    0    8.12179E+03    15.000
PAST   34 000340001   34    0    8.30773E+03    12.700
PAST   35 000350001   35    0    8.23387E+03     4.900
PAST   36 000360001   36    0    8.40608E+03    16.200
PAST   37 000370001   37    0    8.17763E+03    14.100
PAST   38 000380001   38    0    8.17711E+03    45.700
AGRL   39 000390001   39    0    8.25701E+03     4.000
PAST   40 000400001   40    0    8.15666E+03    10.500
FRSE   41 000410001   41    0    8.23714E+03    67.600
PAST   42 000420001   42    0    8.24008E+03    17.500
PAST   43 000430001   43    0    8.18109E+03    36.000
PAST   44 000440001   44    0    8.33961E+03    32.000
AGRL   45 000450001   45    0    8.22281E+03     5.500
PAST   46 000460001   46    0    8.15956E+03    15.100
PAST   47 000470001   47    0    8.22897E+03     5.500
PAST   48 000480001   48    0    8.35950E+03    34.000
PAST   49 000490001   49    0    8.14589E+03    30.000
PAST   50 000500001   50    0    8.17417E+03    23.900
PAST   51 000510001   51    0    8.40801E+03    14.500
FRST   52 000520001   52    0    8.18071E+03    17.900
FRSE   53 000530001   53    0    8.11582E+03    64.900
FRSE   54 000540001   54    0    8.16153E+03    29.800
PAST   55 000550001   55    0    8.18542E+03    11.400
PAST   56 000560001   56    0    8.14568E+03    37.600
PAST   57 000570001   57    0    8.14745E+03    11.900
PAST   58 000580001   58    0    8.16926E+03     9.700
FRSE   59 000590001   59    0    8.25926E+03    48.200
PAST   60 000600001   60    0    8.15650E+03     4.100
PAST   61 000610001   61    0    8.12084E+03    15.100
AGRL   62 000620001   62    0    8.12606E+03    11.800
PAST   63 000630001   63    0    8.26953E+03    15.600
PAST   64 000640001   64    0    8.19570E+03     5.700
FRSE   65 000650001   65    0    8.13003E+03    90.600
PAST   66 000660001   66    0    8.16010E+03    33.600
PAST   67 000670001   67    0    8.24378E+03    38.200
FRSE   68 000680001   68    0    8.36749E+03    48.700
PAST   69 000690001   69    0    8.13270E+03    31.400
PAST   70 000700001   70    0    8.10699E+03    36.500
PAST   71 000710001   71    0    8.15811E+03    42.000
WATR   72 000720001   72    0    8.17412E+03    13.200
PAST   73 000730001   73    0    8.12494E+03    11.900
PAST   74 000740001   74    0    8.30286E+03    29.600
PAST   75 000750001   75    0    8.26409E+03    23.200
PAST   76 000760001   76    0    8.31621E+03    13.100
PAST   77 000770001   77    0    8.36662E+03    12.900
FRSE   78 000780001   78    0    8.11847E+03    55.200
PAST   79 000790001   79    0    8.12399E+03    26.000
PAST   80 000800001   80    0    8.13641E+03    24.000
PAST   81 000810001   81    0    8.24197E+03    24.800
FRST   82 000820001   82    0    8.11555E+03    13.200
PAST   83 000830001   83    0    8.11818E+03    14.600
PAST   84 000840001   84    0    8.48206E+03     5.200
FRSE   85 000850001   85    0    8.10634E+03    65.000
PAST   86 000860001   86    0    8.18784E+03    42.300
PAST   87 000870001   87    0    8.74150E+03     9.000
PAST   88 000880001   88    0    8.20274E+03    25.300
PAST   89 000890001   89    0    8.42727E+03    18.000
PAST   90 000900001   90    0    8.39662E+03    31.100
PAST   91 000910001   91    0    8.15334E+03    14.700
PAST   92 000920001   92    0    8.25808E+03     6.000
FRSE   93 000930001   93    0    8.11551E+03    52.700
PAST   94 000940001   94    0    8.39370E+03    29.700
PAST   95 000950001   95    0    8.17418E+03     9.300
PAST   96 000960001   96    0    8.20710E+03    14.700
FRSE   97 000970001   97    0    8.12490E+03    49.600
FRSE   98 000980001   98    0    8.14550E+03    50.900
PAST   99 000990001   99    0    8.61922E+03    12.100
PAST  100 001000001  100    0    8.12180E+03    13.500
PAST  101 001010001  101    0    8.14478E+03     8.300
PAST  102 001020001  102    0    8.61232E+02    27.900
FRSE  103 001030001  103    0    8.17364E+03    91.300
PAST  104 001040001  104    0    8.42524E+03    38.500
PAST  105 001050001  105    0    8.84709E+02    42.000
PAST  106 001060001  106    0    8.24296E+03    11.100
FRSE  107 001070001  107    0    8.16936E+03    40.100
FRSE  108 001080001  108    0    8.68486E+02    55.100
PAST  109 001090001  109    0    8.81976E+03    36.500
PAST  110 001100001  110    0    8.16105E+03    14.500
PAST  111 001110001  111    0    8.12197E+03     8.200
PAST  112 001120001  112    0    8.18447E+03    37.700
PAST  113 001130001  113    0    8.11854E+03    43.600
PAST  114 001140001  114    0    8.81507E+02     4.000
PAST  115 001150001  115    0    8.31140E+03    11.400
PAST  116 001160001  116    0    8.43610E+03    24.200
FRSE  117 001170001  117    0    8.20646E+03    31.100
FRSE  118 001180001  118    0    8.16585E+03    47.200
PAST  119 001190001  119    0    8.50722E+02     3.300
PAST  120 001200001  120    0    8.25565E+03    12.600
PAST  121 001210001  121    0    8.14666E+03     5.900
PAST  122 001220001  122    0    8.67959E+02    26.500
FRSE  123 001230001  123    0    8.48747E+02    37.200
PAST  124 001240001  124    0    8.85810E+02    27.800
PAST  125 001250001  125    0    8.25270E+02    26.500
PAST  126 001260001  126    0    8.17332E+03    12.600
PAST  127 001270001  127    0    8.11880E+03    17.100
PAST  128 001280001  128    0    8.12827E+04    25.900
PAST  129 001290001  129    0    8.22720E+03    37.400
PAST  130 001300001  130    0    8.26189E+03    18.200
PAST  131 001310001  131    0    8.14943E+03    33.200
FRST  132 001320001  132    0    8.61248E+02     5.400
PAST  133 001330001  133    0    8.30921E+03    15.600
PAST  134 001340001  134    0    8.50054E+03    19.000
PAST  135 001350001  135    0    8.21416E+03     7.700
PAST  136 001360001  136    0    8.12114E+03    27.400
FRST  137 001370001  137    0    8.19724E+03    44.100
PAST  138 001380001  138    0    8.15087E+03     4.200
PAST  139 001390001  139    0    8.15415E+03     4.200
PAST  140 001400001  140    0    8.30855E+03    31.100
PAST  141 001410001  141    0    8.22135E+03     8.900
FRSE  142 001420001  142    0    8.25887E+03    38.900
PAST  143 001430001  143    0    8.17862E+03    11.100
PAST  144 001440001  144    0    8.12260E+03     1.300
FRSE  145 001450001  145    0    8.26857E+03    21.500
AGRL  146 001460001  146    0    8.61838E+02     1.700
PAST  147 001470001  147    0    8.30747E+03    17.700
FRST  148 001480001  148    0    8.33858E+03    26.300
FRSE  149 001490001  149    0    8.54715E+03    51.500
FRSE  150 001500001  150    0    8.16173E+03    49.300
FRSE  151 001510001  151    0    8.24009E+03    66.700
FRSE  152 001520001  152    0    8.21702E+03    97.400
FRSE  153 001530001  153    0    8.77109E+02   100.200
FRSE  154 001540001  154    0    8.22089E+03    93.000
AGRL    1 000010001    1    0    9.28518E+03    23.000
AGRL    2 000020001    2    0    9.20986E+03    30.100
PAST    3 000030001    3    0    9.15216E+03    34.500
FRSE    4 000040001    4    0    9.30556E+03    39.800
FRSE    5 000050001    5    0    9.33168E+03    32.300
PAST    6 000060001    6    0    9.16762E+03     2.500
PAST    7 000070001    7    0    9.10037E+03     1.500
PAST    8 000080001    8    0    9.42491E+03    15.700
PAST    9 000090001    9    0    9.18618E+03    28.000
AGRL   10 000100001   10    0    9.37817E+03    37.500
PAST   11 000110001   11    0    9.33337E+03    32.200
FRSE   12 000120001   12    0    9.18720E+03    27.300
PAST   13 000130001   13    0    9.63210E+03    42.800
PAST   14 000140001   14    0    9.21341E+03    59.500
AGRL   15 000150001   15    0    9.28249E+03    25.000
PAST   16 000160001   16    0    9.11055E+03    72.100
PAST   17 000170001   17    0    9.28844E+03    28.400
PAST   18 000180001   18    0    9.24251E+03    33.200
PAST   19 000190001   19    0    9.10668E+03    29.200
PAST   20 000200001   20    0    9.10357E+03    14.000
PAST   21 000210001   21    0    9.16889E+03    24.400
PAST   22 000220001   22    0    9.20624E+03    39.100
PAST   23 000230001   23    0    9.36939E+03    35.800
PAST   24 000240001   24    0    9.10298E+03    29.500
PAST   25 000250001   25    0    9.23919E+03    36.700
PAST   26 000260001   26    0    9.14933E+03    24.800
AGRL   27 000270001   27    0    9.13252E+03    23.200
PAST   28 000280001   28    0    9.12694E+03    53.800
PAST   29 000290001   29    0    9.14324E+03    55.400
FRSE   30 000300001   30    0    9.13583E+03    38.200
PAST   31 000310001   31    0    9.18577E+03    36.100
PAST   32 000320001   32    0    9.10397E+03    46.800
AGRL   33 000330001   33    0    9.12179E+03    24.100
PAST   34 000340001   34    0    9.30773E+03    43.400
PAST   35 000350001   35    0    9.23387E+03    21.900
PAST   36 000360001   36    0    9.40608E+03    58.100
PAST   37 000370001   37    0    9.17763E+03    17.800
PAST   38 000380001   38    0    9.17711E+03    59.400
AGRL   39 000390001   39    0    9.25701E+03    23.300
PAST   40 000400001   40    0    9.15666E+03    42.900
FRSE   41 000410001   41    0    9.23714E+03    48.000
PAST   42 000420001   42    0    9.24008E+03    50.800
PAST   43 000430001   43    0    9.18109E+03    34.000
PAST   44 000440001   44    0    9.33961E+03    64.300
AGRL   45 000450001   45    0    9.22281E+03    24.500
PAST   46 000460001   46    0    9.15956E+03    44.000
PAST   47 000470001   47    0    9.22897E+03    39.300
PAST   48 000480001   48    0    9.35950E+03    40.300
PAST   49 000490001   49    0    9.14589E+03    49.500
PAST   50 000500001   50    0    9.17417E+03    21.300
PAST   51 000510001   51    0    9.40801E+03    27.300
FRST   52 000520001   52    0    9.18071E+03    38.400
FRSE   53 000530001   53    0    9.11582E+03    51.200
FRSE   54 000540001   54    0    9.16153E+03    34.200
PAST   55 000550001   55    0    9.18542E+03    16.800
PAST   56 000560001   56    0    9.14568E+03    33.800
PAST   57 000570001   57    0    9.14745E+03    39.200
PAST   58 000580001   58    0    9.16926E+03    24.400
FRSE   59 000590001   59    0    9.25926E+03    54.400
PAST   60 000600001   60    0    9.15650E+03    19.100
PAST   61 000610001   61    0    9.12084E+03    14.700
AGRL   62 000620001   62    0    9.12606E+03    26.500
PAST   63 000630001   63    0    9.26953E+03    61.900
PAST   64 000640001   64    0    9.19570E+03    49.000
FRSE   65 000650001   65    0    9.13003E+03   103.100
PAST   66 000660001   66    0    9.16010E+03    65.600
PAST   67 000670001   67    0    9.24378E+03    38.000
FRSE   68 000680001   68    0    9.36749E+03    45.900
PAST   69 000690001   69    0    9.13270E+03    39.700
PAST   70 000700001   70    0    9.10699E+03    66.200
PAST   71 000710001   71    0    9.15811E+03    30.800
WATR   72 000720001   72    0    9.17412E+03    29.700
PAST   73 000730001   73    0    9.12494E+03    54.600
PAST   74 000740001   74    0    9.30286E+03    40.300
PAST   75 000750001   75    0    9.26409E+03    40.000
PAST   76 000760001   76    0    9.31621E+03    20.100
PAST   77 000770001   77    0    9.36662E+03    11.400
FRSE   78 000780001   78    0    9.11847E+03    49.800
PAST   79 000790001   79    0    9.12399E+03    40.700
PAST   80 000800001   80    0    9.13641E+03    42.000
PAST   81 000810001   81    0    9.24197E+03    22.200
FRST   82 000820001   82    0    9.11555E+03    18.900
PAST   83 000830001   83    0    9.11818E+03    67.100
PAST   84 000840001   84    0    9.48206E+03    37.300
FRSE   85 000850001   85    0    9.10634E+03    40.300
PAST   86 000860001   86    0    9.18784E+03    85.000
PAST   87 000870001   87    0    9.74150E+03    14.200
PAST   88 000880001   88    0    9.20274E+03    43.200
PAST   89 000890001   89    0    9.42727E+03    55.500
PAST   90 000900001   90    0    9.39662E+03    27.100
PAST   91 000910001   91    0    9.15334E+03    24.500
PAST   92 000920001   92    0    9.25808E+03    40.600
FRSE   93 000930001   93    0    9.11551E+03    42.000
PAST   94 000940001   94    0    9.39370E+03    36.900
PAST   95 000950001   95    0    9.17418E+03    11.200
PAST   96 000960001   96    0    9.20710E+03    43.500
FRSE   97 000970001   97    0    9.12490E+03    34.200
FRSE   98 000980001   98    0    9.14550E+03    29.200
PAST   99 000990001   99    0    9.61922E+03    41.100
PAST  100 001000001  100    0    9.12180E+03    37.100
PAST  101 001010001  101    0    9.14478E+03    29.300
PAST  102 001020001  102    0    9.61232E+02    35.400
FRSE  103 001030001  103    0    9.17364E+03    88.200
PAST  104 001040001  104    0    9.42524E+03    43.600
PAST  105 001050001  105    0    9.84709E+02    38.500
PAST  106 001060001  106    0    9.24296E+03    39.200
FRSE  107 001070001  107    0    9.16936E+03    45.400
FRSE  108 001080001  108    0    9.68486E+02    76.800
PAST  109 001090001  109    0    9.81976E+03    64.500
PAST  110 001100001  110    0    9.16105E+03    19.500
PAST  111 001110001  111    0    9.12197E+03    38.100
PAST  112 001120001  112    0    9.18447E+03    32.500
PAST  113 001130001  113    0    9.11854E+03    75.300
PAST  114 001140001  114    0    9.81507E+02    25.800
PAST  115 001150001  115    0    9.31140E+03    32.600
PAST  116 001160001  116    0    9.43610E+03    30.100
FRSE  117 001170001  117    0    9.20646E+03    52.200
FRSE  118 001180001  118    0    9.16585E+03    38.400
PAST  119 001190001  119    0    9.50722E+02     6.000
PAST  120 001200001  120    0    9.25565E+03    13.000
PAST  121 001210001  121    0    9.14666E+03    33.400
PAST  122 001220001  122    0    9.67959E+02    34.800
FRSE  123 001230001  123    0    9.48747E+02    53.800
PAST  124 001240001  124    0    9.85810E+02    46.700
PAST  125 001250001  125    0    9.25270E+02    34.800
PAST  126 001260001  126    0    9.17332E+03    47.400
PAST  127 001270001  127    0    9.11880E+03    36.500
PAST  128 001280001  128    0    9.12827E+04    37.400
PAST  129 001290001  129    0    9.22720E+03    42.700
PAST  130 001300001  130    0    9.26189E+03    38.300
PAST  131 001310001  131    0    9.14943E+03    31.300
FRST  132 001320001  132    0    9.61248E+02    21.300
PAST  133 001330001  133    0    9.30921E+03    15.700
PAST  134 001340001  134    0    9.50054E+03    27.000
PAST  135 001350001  135    0    9.21416E+03    28.300
PAST  136 001360001  136    0    9.12114E+03    34.900
FRST  137 001370001  137    0    9.19724E+03    23.300
PAST  138 001380001  138    0    9.15087E+03    27.400
PAST  139 001390001  139    0    9.15415E+03    17.600
PAST  140 001400001  140    0    9.30855E+03    39.000
PAST  141 001410001  141    0    9.22135E+03    15.500
FRSE  142 001420001  142    0    9.25887E+03    28.900
PAST  143 001430001  143    0    9.17862E+03    23.200
PAST  144 001440001  144    0    9.12260E+03    14.100
FRSE  145 001450001  145    0    9.26857E+03    33.100
AGRL  146 001460001  146    0    9.61838E+02    13.300
PAST  147 001470001  147    0    9.30747E+03    32.700
FRST  148 001480001  148    0    9.33858E+03    31.100
FRSE  149 001490001  149    0    9.54715E+03    85.200
FRSE  150 001500001  150    0    9.16173E+03    46.100
FRSE  151 001510001  151    0    9.24009E+03   138.300
FRSE  152 001520001  152    0    9.21702E+03   124.300
FRSE  153 001530001  153    0    9.77109E+02   114.300
FRSE  154 001540001  154    0    9.22089E+03    92.400
AGRL    1 000010001    1    0   10.28518E+03   108.600
AGRL    2 000020001    2    0   10.20986E+03   108.500
PAST    3 000030001    3    0   10.15216E+03   157.800
FRSE    4 000040001    4    0   10.30556E+03   109.900
FRSE    5 000050001    5    0   10.33168E+03    79.500
PAST    6 000060001    6    0   10.16762E+03   114.100
PAST    7 000070001    7    0   10.10037E+03    34.900
PAST    8 000080001    8    0   10.42491E+03    20.000
PAST    9 000090001    9    0   10.18618E+03    55.100
AGRL   10 000100001   10    0   10.37817E+03   129.300
PAST   11 000110001   11    0   10.33337E+03    67.800
FRSE   12 000120001   12    0   10.18720E+03   165.300
PAST   13 000130001   13    0   10.63210E+03    58.900
PAST   14 000140001   14    0   10.21341E+03   101.000
AGRL   15 000150001   15    0   10.28249E+03    86.100
PAST   16 000160001   16    0   10.11055E+03   300.500
PAST   17 000170001   17    0   10.28844E+03    96.700
PAST   18 000180001   18    0   10.24251E+03    81.600
PAST   19 000190001   19    0   10.10668E+03   111.800
PAST   20 000200001   20    0   10.10357E+03    22.000
PAST   21 000210001   21    0   10.16889E+03   104.100
PAST   22 000220001   22    0   10.20624E+03   192.000
PAST   23 000230001   23    0   10.36939E+03    96.000
PAST   24 000240001   24    0   10.10298E+03    57.000
PAST   25 000250001   25    0   10.23919E+03    76.800
PAST   26 000260001   26    0   10.14933E+03    32.600
AGRL   27 000270001   27    0   10.13252E+03    95.500
PAST   28 000280001   28    0   10.12694E+03   196.900
PAST   29 000290001   29    0   10.14324E+03   107.200
FRSE   30 000300001   30    0   10.13583E+03   168.900
PAST   31 000310001   31    0   10.18577E+03    70.000
PAST   32 000320001   32    0   10.10397E+03    62.600
AGRL   33 000330001   33    0   10.12179E+03    69.500
PAST   34 000340001   34    0   10.30773E+03   109.300
PAST   35 000350001   35    0   10.23387E+03    78.700
PAST   36 000360001   36    0   10.40608E+03    83.500
PAST   37 000370001   37    0   10.17763E+03    58.600
PAST   38 000380001   38    0   10.17711E+03    71.100
AGRL   39 000390001   39    0   10.25701E+03    84.500
PAST   40 000400001   40    0   10.15666E+03   174.500
FRSE   41 000410001   41    0   10.23714E+03   131.900
PAST   42 000420001   42    0   10.24008E+03    74.200
PAST   43 000430001   43    0   10.18109E+03   103.500
PAST   44 000440001   44    0   10.33961E+03    87.200
AGRL   45 000450001   45    0   10.22281E+03   117.900
PAST   46 000460001   46    0   10.15956E+03   156.400
PAST   47 000470001   47    0   10.22897E+03   127.600
PAST   48 000480001   48    0   10.35950E+03    57.800
PAST   49 000490001   49    0   10.14589E+03    55.900
PAST   50 000500001   50    0   10.17417E+03    22.000
PAST   51 000510001   51    0   10.40801E+03    71.600
FRST   52 000520001   52    0   10.18071E+03   104.600
FRSE   53 000530001   53    0   10.11582E+03   201.200
FRSE   54 000540001   54    0   10.16153E+03    68.400
PAST   55 000550001   55    0   10.18542E+03    65.000
PAST   56 000560001   56    0   10.14568E+03    42.300
PAST   57 000570001   57    0   10.14745E+03   117.600
PAST   58 000580001   58    0   10.16926E+03    86.500
FRSE   59 000590001   59    0   10.25926E+03   196.100
PAST   60 000600001   60    0   10.15650E+03    39.000
[...]
PAST  100 001000001  100    0   12.12180E+03    96.700
PAST  101 001010001  101    0   12.14478E+03    80.000
PAST  102 001020001  102    0   12.61232E+02    72.300
FRSE  103 001030001  103    0   12.17364E+03   223.600
PAST  104 001040001  104    0   12.42524E+03    71.000
PAST  105 001050001  105    0   12.84709E+02    77.500
PAST  106 001060001  106    0   12.24296E+03    76.400
FRSE  107 001070001  107    0   12.16936E+03   179.800
FRSE  108 001080001  108    0   12.68486E+02   152.900
PAST  109 001090001  109    0   12.81976E+03    83.900
PAST  110 001100001  110    0   12.16105E+03    67.700
PAST  111 001110001  111    0   12.12197E+03   107.100
PAST  112 001120001  112    0   12.18447E+03    91.800
PAST  113 001130001  113    0   12.11854E+03   102.000
PAST  114 001140001  114    0   12.81507E+02    60.000
PAST  115 001150001  115    0   12.31140E+03    85.600
PAST  116 001160001  116    0   12.43610E+03    70.100
FRSE  117 001170001  117    0   12.20646E+03   162.200
FRSE  118 001180001  118    0   12.16585E+03   198.000
PAST  119 001190001  119    0   12.50722E+02    52.500
PAST  120 001200001  120    0   12.25565E+03    73.700
PAST  121 001210001  121    0   12.14666E+03   100.700
PAST  122 001220001  122    0   12.67959E+02    66.000
FRSE  123 001230001  123    0   12.48747E+02   176.000
PAST  124 001240001  124    0   12.85810E+02   109.600
PAST  125 001250001  125    0   12.25270E+02    66.000
PAST  126 001260001  126    0   12.17332E+03    87.500
PAST  127 001270001  127    0   12.11880E+03    93.400
PAST  128 001280001  128    0   12.12827E+04    81.800
PAST  129 001290001  129    0   12.22720E+03    79.300
PAST  130 001300001  130    0   12.26189E+03    75.300
PAST  131 001310001  131    0   12.14943E+03    70.400
FRST  132 001320001  132    0   12.61248E+02    62.500
PAST  133 001330001  133    0   12.30921E+03    88.800
PAST  134 001340001  134    0   12.50054E+03    69.600
PAST  135 001350001  135    0   12.21416E+03   121.800
PAST  136 001360001  136    0   12.12114E+03    85.200
FRST  137 001370001  137    0   12.19724E+03    82.300
PAST  138 001380001  138    0   12.15087E+03    75.900
PAST  139 001390001  139    0   12.15415E+03    57.900
PAST  140 001400001  140    0   12.30855E+03    60.800
PAST  141 001410001  141    0   12.22135E+03    61.200
FRSE  142 001420001  142    0   12.25887E+03   100.700
PAST  143 001430001  143    0   12.17862E+03    76.700
PAST  144 001440001  144    0   12.12260E+03    67.000
FRSE  145 001450001  145    0   12.26857E+03    83.400
AGRL  146 001460001  146    0   12.61838E+02    78.100
PAST  147 001470001  147    0   12.30747E+03    89.400
FRST  148 001480001  148    0   12.33858E+03   111.300
FRSE  149 001490001  149    0   12.54715E+03   192.100
FRSE  150 001500001  150    0   12.16173E+03   186.800
FRSE  151 001510001  151    0   12.24009E+03   189.000
FRSE  152 001520001  152    0   12.21702E+03   259.900
FRSE  153 001530001  153    0   12.77109E+02   262.300
FRSE  154 001540001  154    0   12.22089E+03   189.800
AGRL    1 000010001    1    0 2016.28518E+03   692.500
AGRL    2 000020001    2    0 2016.20986E+03   737.800
PAST    3 000030001    3    0 2016.15216E+03   642.500
FRSE    4 000040001    4    0 2016.30556E+03   787.600
FRSE    5 000050001    5    0 2016.33168E+03   529.100
PAST    6 000060001    6    0 2016.16762E+03   976.700
PAST    7 000070001    7    0 2016.10037E+03   381.700
PAST    8 000080001    8    0 2016.42491E+03   421.000
PAST    9 000090001    9    0 2016.18618E+03   452.300
AGRL   10 000100001   10    0 2016.37817E+03   558.300
PAST   11 000110001   11    0 2016.33337E+03   476.900
FRSE   12 000120001   12    0 2016.18720E+03   849.000
PAST   13 000130001   13    0 2016.63210E+03   848.800
PAST   14 000140001   14    0 2016.21341E+03   783.200
AGRL   15 000150001   15    0 2016.28249E+03   539.400
PAST   16 000160001   16    0 2016.11055E+03   867.700
PAST   17 000170001   17    0 2016.28844E+03   614.600
PAST   18 000180001   18    0 2016.24251E+03   550.600
PAST   19 000190001   19    0 2016.10668E+03   806.200
PAST   20 000200001   20    0 2016.10357E+03   272.100
PAST   21 000210001   21    0 2016.16889E+03   830.900
PAST   22 000220001   22    0 2016.20624E+03   675.400
PAST   23 000230001   23    0 2016.36939E+03   645.600
PAST   24 000240001   24    0 2016.10298E+03   442.100
PAST   25 000250001   25    0 2016.23919E+03   592.100
PAST   26 000260001   26    0 2016.14933E+03   466.500
AGRL   27 000270001   27    0 2016.13252E+03   646.200
PAST   28 000280001   28    0 2016.12694E+03   704.700
PAST   29 000290001   29    0 2016.14324E+03   606.400
FRSE   30 000300001   30    0 2016.13583E+03   938.300
PAST   31 000310001   31    0 2016.18577E+03   632.400
PAST   32 000320001   32    0 2016.10397E+03   494.200
AGRL   33 000330001   33    0 2016.12179E+03   468.800
PAST   34 000340001   34    0 2016.30773E+03   483.600
PAST   35 000350001   35    0 2016.23387E+03   562.400
PAST   36 000360001   36    0 2016.40608E+03   768.400
PAST   37 000370001   37    0 2016.17763E+03   744.300
PAST   38 000380001   38    0 2016.17711E+03   584.200
AGRL   39 000390001   39    0 2016.25701E+03   507.900
PAST   40 000400001   40    0 2016.15666E+03   736.900
FRSE   41 000410001   41    0 2016.23714E+03   952.000
PAST   42 000420001   42    0 2016.24008E+03   651.900
PAST   43 000430001   43    0 2016.18109E+03   821.200
PAST   44 000440001   44    0 2016.33961E+03   652.100
AGRL   45 000450001   45    0 2016.22281E+03   534.300
PAST   46 000460001   46    0 2016.15956E+03   732.400
PAST   47 000470001   47    0 2016.22897E+03   669.300
PAST   48 000480001   48    0 2016.35950E+03   448.800
PAST   49 000490001   49    0 2016.14589E+03   688.700
PAST   50 000500001   50    0 2016.17417E+03   352.300
PAST   51 000510001   51    0 2016.40801E+03   425.300
FRST   52 000520001   52    0 2016.18071E+03   738.000
FRSE   53 000530001   53    0 2016.11582E+03  1091.100
FRSE   54 000540001   54    0 2016.16153E+03   451.000
PAST   55 000550001   55    0 2016.18542E+03   745.800
PAST   56 000560001   56    0 2016.14568E+03   407.000
PAST   57 000570001   57    0 2016.14745E+03   647.000
PAST   58 000580001   58    0 2016.16926E+03   574.900
FRSE   59 000590001   59    0 2016.25926E+03  1310.800
PAST   60 000600001   60    0 2016.15650E+03   394.800
PAST   61 000610001   61    0 2016.12084E+03   431.800
AGRL   62 000620001   62    0 2016.12606E+03   759.000
PAST   63 000630001   63    0 2016.26953E+03   803.800
PAST   64 000640001   64    0 2016.19570E+03   626.300
FRSE   65 000650001   65    0 2016.13003E+03  2634.600
PAST   66 000660001   66    0 2016.16010E+03   674.900
PAST   67 000670001   67    0 2016.24378E+03   445.300
FRSE   68 000680001   68    0 2016.36749E+03   708.700
PAST   69 000690001   69    0 2016.13270E+03   712.500
PAST   70 000700001   70    0 2016.10699E+03   659.700
PAST   71 000710001   71    0 2016.15811E+03   380.600
WATR   72 000720001   72    0 2016.17412E+03   520.400
PAST   73 000730001   73    0 2016.12494E+03   764.800
PAST   74 000740001   74    0 2016.30286E+03   754.800
PAST   75 000750001   75    0 2016.26409E+03   417.900
PAST   76 000760001   76    0 2016.31621E+03   775.900
PAST   77 000770001   77    0 2016.36662E+03   369.400
FRSE   78 000780001   78    0 2016.11847E+03  1024.300
PAST   79 000790001   79    0 2016.12399E+03   574.300
PAST   80 000800001   80    0 2016.13641E+03   762.000
PAST   81 000810001   81    0 2016.24197E+03   382.400
FRST   82 000820001   82    0 2016.11555E+03   781.300
PAST   83 000830001   83    0 2016.11818E+03   805.000
PAST   84 000840001   84    0 2016.48206E+03   587.200
FRSE   85 000850001   85    0 2016.10634E+03  1572.600
PAST   86 000860001   86    0 2016.18784E+03   740.400
PAST   87 000870001   87    0 2016.74150E+03   400.000
PAST   88 000880001   88    0 2016.20274E+03   607.800
PAST   89 000890001   89    0 2016.42727E+03   869.400
PAST   90 000900001   90    0 2016.39662E+03   414.100
PAST   91 000910001   91    0 2016.15334E+03   805.500
PAST   92 000920001   92    0 2016.25808E+03   457.800
FRSE   93 000930001   93    0 2016.11551E+03  1533.100
PAST   94 000940001   94    0 2016.39370E+03   817.400
PAST   95 000950001   95    0 2016.17418E+03   383.800
PAST   96 000960001   96    0 2016.20710E+03   683.300
FRSE   97 000970001   97    0 2016.12490E+03   828.600
FRSE   98 000980001   98    0 2016.14550E+03  1098.500
PAST   99 000990001   99    0 2016.61922E+03   732.900
PAST  100 001000001  100    0 2016.12180E+03   607.000
PAST  101 001010001  101    0 2016.14478E+03   458.100
PAST  102 001020001  102    0 2016.61232E+02   850.600
FRSE  103 001030001  103    0 2016.17364E+03  2812.600
PAST  104 001040001  104    0 2016.42524E+03   667.500
PAST  105 001050001  105    0 2016.84709E+02   455.500
PAST  106 001060001  106    0 2016.24296E+03   404.500
FRSE  107 001070001  107    0 2016.16936E+03   912.100
FRSE  108 001080001  108    0 2016.68486E+02  1561.400
PAST  109 001090001  109    0 2016.81976E+03   740.800
PAST  110 001100001  110    0 2016.16105E+03   421.700
PAST  111 001110001  111    0 2016.12197E+03   506.800
PAST  112 001120001  112    0 2016.18447E+03   513.400
PAST  113 001130001  113    0 2016.11854E+03   660.600
PAST  114 001140001  114    0 2016.81507E+02   394.500
PAST  115 001150001  115    0 2016.31140E+03   529.200
PAST  116 001160001  116    0 2016.43610E+03   572.700
FRSE  117 001170001  117    0 2016.20646E+03   900.000
FRSE  118 001180001  118    0 2016.16585E+03  1058.200
PAST  119 001190001  119    0 2016.50722E+02   365.700
PAST  120 001200001  120    0 2016.25565E+03   399.100
PAST  121 001210001  121    0 2016.14666E+03   516.300
PAST  122 001220001  122    0 2016.67959E+02   483.000
FRSE  123 001230001  123    0 2016.48747E+02  1087.300
PAST  124 001240001  124    0 2016.85810E+02   708.900
PAST  125 001250001  125    0 2016.25270E+02   483.000
PAST  126 001260001  126    0 2016.17332E+03   501.500
PAST  127 001270001  127    0 2016.11880E+03   582.300
PAST  128 001280001  128    0 2016.12827E+04   659.000
PAST  129 001290001  129    0 2016.22720E+03   571.300
PAST  130 001300001  130    0 2016.26189E+03   603.900
PAST  131 001310001  131    0 2016.14943E+03   419.200
FRST  132 001320001  132    0 2016.61248E+02   489.800
PAST  133 001330001  133    0 2016.30921E+03   466.500
PAST  134 001340001  134    0 2016.50054E+03   632.900
PAST  135 001350001  135    0 2016.21416E+03   475.500
PAST  136 001360001  136    0 2016.12114E+03   477.700
FRST  137 001370001  137    0 2016.19724E+03   722.900
PAST  138 001380001  138    0 2016.15087E+03   449.400
PAST  139 001390001  139    0 2016.15415E+03   422.400
PAST  140 001400001  140    0 2016.30855E+03   423.800
PAST  141 001410001  141    0 2016.22135E+03   416.500
FRSE  142 001420001  142    0 2016.25887E+03   684.700
PAST  143 001430001  143    0 2016.17862E+03   532.300
PAST  144 001440001  144    0 2016.12260E+03   420.400
FRSE  145 001450001  145    0 2016.26857E+03   586.000
AGRL  146 001460001  146    0 2016.61838E+02   485.200
PAST  147 001470001  147    0 2016.30747E+03   646.800
FRST  148 001480001  148    0 2016.33858E+03   652.700
FRSE  149 001490001  149    0 2016.54715E+03  1459.500
FRSE  150 001500001  150    0 2016.16173E+03  1127.700
FRSE  151 001510001  151    0 2016.24009E+03  2096.200
FRSE  152 001520001  152    0 2016.21702E+03  3042.700
FRSE  153 001530001  153    0 2016.77109E+02  3132.600
FRSE  154 001540001  154    0 2016.22089E+03  2599.600
AGRL    1 000010001    1    0 35.0.28518E+03   854.014
AGRL    2 000020001    2    0 35.0.20986E+03   946.803
PAST    3 000030001    3    0 35.0.15216E+03   833.863
FRSE    4 000040001    4    0 35.0.30556E+03   812.217
FRSE    5 000050001    5    0 35.0.33168E+03   587.834
PAST    6 000060001    6    0 35.0.16762E+03  1140.123
PAST    7 000070001    7    0 35.0.10037E+03   482.043
PAST    8 000080001    8    0 35.0.42491E+03   526.331
PAST    9 000090001    9    0 35.0.18618E+03   483.520
AGRL   10 000100001   10    0 35.0.37817E+03   627.200
PAST   11 000110001   11    0 35.0.33337E+03   599.103
FRSE   12 000120001   12    0 35.0.18720E+03  1009.786
PAST   13 000130001   13    0 35.0.63210E+03   883.080
PAST   14 000140001   14    0 35.0.21341E+03  1042.143
AGRL   15 000150001   15    0 35.0.28249E+03   777.837
PAST   16 000160001   16    0 35.0.11055E+03  1062.017
PAST   17 000170001   17    0 35.0.28844E+03   734.091
PAST   18 000180001   18    0 35.0.24251E+03   601.426
PAST   19 000190001   19    0 35.0.10668E+03   961.923
PAST   20 000200001   20    0 35.0.10357E+03   331.363
PAST   21 000210001   21    0 35.0.16889E+03   957.940
PAST   22 000220001   22    0 35.0.20624E+03   869.877
PAST   23 000230001   23    0 35.0.36939E+03   836.523
PAST   24 000240001   24    0 35.0.10298E+03   471.877
PAST   25 000250001   25    0 35.0.23919E+03   638.920
PAST   26 000260001   26    0 35.0.14933E+03   588.871
AGRL   27 000270001   27    0 35.0.13252E+03   724.180
PAST   28 000280001   28    0 35.0.12694E+03   767.874
PAST   29 000290001   29    0 35.0.14324E+03   880.500
FRSE   30 000300001   30    0 35.0.13583E+03  1144.980
PAST   31 000310001   31    0 35.0.18577E+03   736.091
PAST   32 000320001   32    0 35.0.10397E+03   717.206
AGRL   33 000330001   33    0 35.0.12179E+03   521.749
PAST   34 000340001   34    0 35.0.30773E+03   531.020
PAST   35 000350001   35    0 35.0.23387E+03   606.657
PAST   36 000360001   36    0 35.0.40608E+03   835.657
PAST   37 000370001   37    0 35.0.17763E+03   845.526
PAST   38 000380001   38    0 35.0.17711E+03   816.866
AGRL   39 000390001   39    0 35.0.25701E+03   744.320
PAST   40 000400001   40    0 35.0.15666E+03   922.560
FRSE   41 000410001   41    0 35.0.23714E+03   986.277
PAST   42 000420001   42    0 35.0.24008E+03   703.017
PAST   43 000430001   43    0 35.0.18109E+03   875.620
PAST   44 000440001   44    0 35.0.33961E+03   907.957
AGRL   45 000450001   45    0 35.0.22281E+03   758.557
PAST   46 000460001   46    0 35.0.15956E+03   827.657
PAST   47 000470001   47    0 35.0.22897E+03  1068.094
PAST   48 000480001   48    0 35.0.35950E+03   500.203
PAST   49 000490001   49    0 35.0.14589E+03   837.389
PAST   50 000500001   50    0 35.0.17417E+03   452.043
PAST   51 000510001   51    0 35.0.40801E+03   479.651
FRST   52 000520001   52    0 35.0.18071E+03   893.060
FRSE   53 000530001   53    0 35.0.11582E+03  1156.983
FRSE   54 000540001   54    0 35.0.16153E+03   507.820
PAST   55 000550001   55    0 35.0.18542E+03   887.249
PAST   56 000560001   56    0 35.0.14568E+03   567.063
PAST   57 000570001   57    0 35.0.14745E+03   772.617
PAST   58 000580001   58    0 35.0.16926E+03   613.397
FRSE   59 000590001   59    0 35.0.25926E+03  1590.969
PAST   60 000600001   60    0 35.0.15650E+03   472.503
PAST   61 000610001   61    0 35.0.12084E+03   513.640
AGRL   62 000620001   62    0 35.0.12606E+03   943.571
PAST   63 000630001   63    0 35.0.26953E+03   918.697
PAST   64 000640001   64    0 35.0.19570E+03   994.197
FRSE   65 000650001   65    0 35.0.13003E+03  3160.946
PAST   66 000660001   66    0 35.0.16010E+03   851.231
PAST   67 000670001   67    0 35.0.24378E+03   661.777
FRSE   68 000680001   68    0 35.0.36749E+03   775.157
PAST   69 000690001   69    0 35.0.13270E+03   920.883
PAST   70 000700001   70    0 35.0.10699E+03   843.537
PAST   71 000710001   71    0 35.0.15811E+03   540.337
WATR   72 000720001   72    0 35.0.17412E+03   581.597
PAST   73 000730001   73    0 35.0.12494E+03   945.514
PAST   74 000740001   74    0 35.0.30286E+03   830.957
PAST   75 000750001   75    0 35.0.26409E+03   472.114
PAST   76 000760001   76    0 35.0.31621E+03   842.123
PAST   77 000770001   77    0 35.0.36662E+03   447.054
FRSE   78 000780001   78    0 35.0.11847E+03  1109.283
PAST   79 000790001   79    0 35.0.12399E+03   590.831
PAST   80 000800001   80    0 35.0.13641E+03   895.003
PAST   81 000810001   81    0 35.0.24197E+03   476.303
FRST   82 000820001   82    0 35.0.11555E+03   925.329
PAST   83 000830001   83    0 35.0.11818E+03   923.726
PAST   84 000840001   84    0 35.0.48206E+03   963.649
FRSE   85 000850001   85    0 35.0.10634E+03  1872.157
PAST   86 000860001   86    0 35.0.18784E+03   903.440
PAST   87 000870001   87    0 35.0.74150E+03   471.674
PAST   88 000880001   88    0 35.0.20274E+03   687.177
PAST   89 000890001   89    0 35.0.42727E+03   930.066
PAST   90 000900001   90    0 35.0.39662E+03   538.169
PAST   91 000910001   91    0 35.0.15334E+03   998.109
PAST   92 000920001   92    0 35.0.25808E+03   575.366
FRSE   93 000930001   93    0 35.0.11551E+03  1807.543
PAST   94 000940001   94    0 35.0.39370E+03   798.023
PAST   95 000950001   95    0 35.0.17418E+03   480.534
PAST   96 000960001   96    0 35.0.20710E+03   746.634
FRSE   97 000970001   97    0 35.0.12490E+03   881.840
FRSE   98 000980001   98    0 35.0.14550E+03  1305.134
PAST   99 000990001   99    0 35.0.61922E+03   900.057
PAST  100 001000001  100    0 35.0.12180E+03   698.303
PAST  101 001010001  101    0 35.0.14478E+03   537.291
PAST  102 001020001  102    0 35.0.61232E+02   817.591
FRSE  103 001030001  103    0 35.0.17364E+03  3316.377
PAST  104 001040001  104    0 35.0.42524E+03   669.849
PAST  105 001050001  105    0 35.0.84709E+02   644.080
PAST  106 001060001  106    0 35.0.24296E+03   457.457
FRSE  107 001070001  107    0 35.0.16936E+03   974.400
FRSE  108 001080001  108    0 35.0.68486E+02  1891.277
PAST  109 001090001  109    0 35.0.81976E+03   881.414
PAST  110 001100001  110    0 35.0.16105E+03   498.983
PAST  111 001110001  111    0 35.0.12197E+03   691.994
PAST  112 001120001  112    0 35.0.18447E+03   575.889
PAST  113 001130001  113    0 35.0.11854E+03   885.780
PAST  114 001140001  114    0 35.0.81507E+02   450.351
PAST  115 001150001  115    0 35.0.31140E+03   609.769
PAST  116 001160001  116    0 35.0.43610E+03   722.023
FRSE  117 001170001  117    0 35.0.20646E+03   979.111
FRSE  118 001180001  118    0 35.0.16585E+03  1137.683
PAST  119 001190001  119    0 35.0.50722E+02   453.677
PAST  120 001200001  120    0 35.0.25565E+03   472.751
PAST  121 001210001  121    0 35.0.14666E+03   801.757
PAST  122 001220001  122    0 35.0.67959E+02   553.311
FRSE  123 001230001  123    0 35.0.48747E+02  1217.531
PAST  124 001240001  124    0 35.0.85810E+02   786.240
PAST  125 001250001  125    0 35.0.25270E+02   553.311
PAST  126 001260001  126    0 35.0.17332E+03   612.757
PAST  127 001270001  127    0 35.0.11880E+03   642.289
PAST  128 001280001  128    0 35.0.12827E+04   795.734
PAST  129 001290001  129    0 35.0.22720E+03   756.649
PAST  130 001300001  130    0 35.0.26189E+03   687.066
PAST  131 001310001  131    0 35.0.14943E+03   439.106
FRST  132 001320001  132    0 35.0.61248E+02   593.286
PAST  133 001330001  133    0 35.0.30921E+03   568.826
PAST  134 001340001  134    0 35.0.50054E+03   748.871
PAST  135 001350001  135    0 35.0.21416E+03   649.146
PAST  136 001360001  136    0 35.0.12114E+03   504.686
FRST  137 001370001  137    0 35.0.19724E+03   902.240
PAST  138 001380001  138    0 35.0.15087E+03   556.646
PAST  139 001390001  139    0 35.0.15415E+03   463.909
PAST  140 001400001  140    0 35.0.30855E+03   448.363
PAST  141 001410001  141    0 35.0.22135E+03   509.883
FRSE  142 001420001  142    0 35.0.25887E+03   863.154
PAST  143 001430001  143    0 35.0.17862E+03   658.243
PAST  144 001440001  144    0 35.0.12260E+03   439.914
FRSE  145 001450001  145    0 35.0.26857E+03   701.951
AGRL  146 001460001  146    0 35.0.61838E+02   502.363
PAST  147 001470001  147    0 35.0.30747E+03   688.803
FRST  148 001480001  148    0 35.0.33858E+03   743.074
FRSE  149 001490001  149    0 35.0.54715E+03  1681.889
FRSE  150 001500001  150    0 35.0.16173E+03  1244.057
FRSE  151 001510001  151    0 35.0.24009E+03  2516.420
FRSE  152 001520001  152    0 35.0.21702E+03  3612.366
FRSE  153 001530001  153    0 35.0.77109E+02  3729.349
FRSE  154 001540001  154    0 35.0.22089E+03  3042.166
