1
    SWAT Sep 7    VER 2018/Rev 670                                                                       0/ 0/   0      0: 0: 0

    General Input/Output section (file.cio):                                        
    2020-03-28 00:00:00 ARCGIS-SWAT interface AV                                    
                                                                                    
         Number of years in run:   36
         Area of watershed:    34545.756 km2
1
    SWAT Sep 7    VER 2018/Rev 670                                                  

    General Input/Output section (file.cio):                                        
    2020-03-28 00:00:00 ARCGIS-SWAT interface AV                                    
                                                                                    
Annual Summary for Watershed in year    1 of simulation

UNIT                                    PERCO    TILE                           WATER     SED     NO3     NO3     NO3     NO3        N       P       P
TIME     PREC    SURQ    LATQ     GWQ    LATE       Q     SW       ET     PET   YIELD   YIELD    SURQ    LATQ    PERC    CROP  ORGANIC SOLUBLE ORGANIC TILENO3
         (mm)    (mm)    (mm)    (mm)    (mm)    (mm)    (mm)    (mm)    (mm)    (mm)   (t/ha)  ------------------(kg nutrient/ha)-------------------- (kg/ha)
1
    SWAT Sep 7    VER 2018/Rev 670                                                  

    General Input/Output section (file.cio):                                        
    2020-03-28 00:00:00 ARCGIS-SWAT interface AV                                    
                                                                                    
Annual Summary for Watershed in year    2 of simulation

UNIT                                    PERCO    TILE                           WATER     SED     NO3     NO3     NO3     NO3        N       P       P
TIME     PREC    SURQ    LATQ     GWQ    LATE       Q     SW       ET     PET   YIELD   YIELD    SURQ    LATQ    PERC    CROP  ORGANIC SOLUBLE ORGANIC TILENO3
         (mm)    (mm)    (mm)    (mm)    (mm)    (mm)    (mm)    (mm)    (mm)    (mm)   (t/ha)  ------------------(kg nutrient/ha)-------------------- (kg/ha)
    1  144.52   15.62   26.09   26.95   41.78    0.00  109.92   58.32   81.09   69.31   17.85    0.01    0.10    2.21    0.05     6.25    0.00    0.77    0.00
    2  203.08   34.15   40.73   36.59   73.18    0.00  113.46   51.43   59.63  112.80   39.70    0.02    0.15    3.43    0.65    10.02    0.00    1.25    0.00
    3  106.70   11.19   21.46   49.00   27.42    0.00  105.28   57.30   86.75   83.44    9.87    0.01    0.04    0.61    0.52     2.45    0.00    0.30    0.00
    4   69.92    7.81   11.29   37.93   14.02    0.00  105.08   37.50   59.20   58.67    4.26    0.01    0.02    0.37    0.26     0.79    0.00    0.10    0.00
    5    3.10    0.01    0.96   22.94    0.02    0.00   80.89   27.51   89.69   25.49    0.01    0.00    0.00    0.00    0.18     0.00    0.00    0.00    0.00
    6    3.85    0.01    0.24    7.49    0.01    0.00   70.26   14.60   77.83    8.95    0.00    0.00    0.00    0.00    0.14     0.00    0.00    0.00    0.00
    7    4.51    0.01    0.24    1.08    0.02    0.00   62.10   12.86   91.53    2.30    0.00    0.00    0.00    0.00    0.25     0.00    0.00    0.00    0.00
    8   24.92    1.94    3.06    0.17    0.14    0.00   63.28   19.02   82.25    5.89    3.30    0.01    0.02    0.00    0.19     0.15    0.00    0.02    0.00
    9   39.13    3.10    2.81    0.05    0.38    0.00   75.71   19.12   75.03    6.03    2.33    0.00    0.01    0.01    0.18     0.64    0.00    0.08    0.00
   10  104.71   15.52   15.68    0.58   11.75    0.00   95.60   42.19   81.67   32.59   11.83    0.01    0.03    0.33    0.41     2.27    0.00    0.28    0.00
   11  106.72    7.36   16.51    7.04   24.93    0.00  100.90   53.00   71.29   31.37    6.54    0.00    0.04    0.92    0.69     1.16    0.00    0.14    0.00
   12   84.45    5.50   12.60   14.54   14.50    0.00   98.73   54.13   89.65   33.19    5.99    0.00    0.03    0.49    0.66     1.10    0.00    0.14    0.00

 1982  895.59  102.22  151.66  204.36  208.15    0.00   98.73  446.98  945.61  470.01  101.68    0.07    0.44    8.37    4.18    24.82    0.01    3.07    0.00
1
    SWAT Sep 7    VER 2018/Rev 670                                                  

    General Input/Output section (file.cio):                                        
    2020-03-28 00:00:00 ARCGIS-SWAT interface AV                                    
                                                                                    
Annual Summary for Watershed in year    3 of simulation

UNIT                                    PERCO    TILE                           WATER     SED     NO3     NO3     NO3     NO3        N       P       P
TIME     PREC    SURQ    LATQ     GWQ    LATE       Q     SW       ET     PET   YIELD   YIELD    SURQ    LATQ    PERC    CROP  ORGANIC SOLUBLE ORGANIC TILENO3
         (mm)    (mm)    (mm)    (mm)    (mm)    (mm)    (mm)    (mm)    (mm)    (mm)   (t/ha)  ------------------(kg nutrient/ha)-------------------- (kg/ha)
    1  138.40   19.06   21.49   16.11   32.89    0.00  106.18   56.06   87.23   57.01   23.39    0.01    0.06    1.09    0.21     7.42    0.00    0.92    0.00
    2   80.67    9.54   14.01   18.32   12.77    0.00  102.80   49.17   76.94   42.85   11.06    0.01    0.03    0.39    1.24     2.11    0.00    0.26    0.00
    3  152.85   34.98   23.66   22.62   37.85    0.00  103.97   55.04   75.87   81.53   38.73    0.02    0.04    1.04    1.02     6.50    0.00    0.80    0.00
    4   66.50   12.28   10.68   24.79   13.47    0.00   96.08   39.35   61.72   49.43    8.36    0.01    0.02    0.43    0.48     1.83    0.00    0.23    0.00
    5   21.77    2.17    2.61   16.91    0.99    0.00   84.17   28.72   69.68   22.70    2.31    0.00    0.00    0.02    0.27     0.17    0.00    0.02    0.00
    6   10.57    0.17    0.69    5.68    0.06    0.00   76.92   17.21   63.64    7.34    0.02    0.00    0.00    0.00    0.13     0.01    0.00    0.00    0.00
    7    1.88    0.01    0.24    0.65    0.00    0.00   64.93   14.34   99.63    1.56    0.00    0.00    0.00    0.00    0.24     0.00    0.00    0.00    0.00
    8    3.01    0.02    0.19    0.03    0.00    0.00   56.73   11.64  106.84    0.74    0.00    0.00    0.00    0.00    0.19     0.00    0.00    0.00    0.00
    9   48.31    3.03    4.86    0.02    0.24    0.00   75.44   21.26   78.90    8.24    3.18    0.01    0.01    0.00    0.14     0.81    0.00    0.10    0.00
   10   49.78    4.57    5.49    0.15    3.25    0.00   75.27   36.89   96.12   10.50    3.60    0.00    0.01    0.10    0.20     0.98    0.00    0.12    0.00
   11   38.51    0.61    2.98    1.09    1.29    0.00   72.88   36.26   97.46    4.90    0.57    0.00    0.01    0.06    0.26     0.13    0.00    0.02    0.00
   12   87.32    3.65   10.28    3.49   16.85    0.00   84.70   43.59   74.13   17.59    2.86    0.00    0.03    0.74    0.23     0.85    0.00    0.10    0.00

 1983  699.58   90.08   97.18  109.86  119.67    0.00   84.70  409.52  988.17  304.38   94.09    0.06    0.23    3.87    4.61    20.79    0.01    2.57    0.00
1
    SWAT Sep 7    VER 2018/Rev 670                                                  

    General Input/Output section (file.cio):                                        
    2020-03-28 00:00:00 ARCGIS-SWAT interface AV                                    
                                                                                    
Annual Summary for Watershed in year    4 of simulation

UNIT                                    PERCO    TILE                           WATER     SED     NO3     NO3     NO3     NO3        N       P       P
TIME     PREC    SURQ    LATQ     GWQ    LATE       Q     SW       ET     PET   YIELD   YIELD    SURQ    LATQ    PERC    CROP  ORGANIC SOLUBLE ORGANIC TILENO3
         (mm)    (mm)    (mm)    (mm)    (mm)    (mm)    (mm)    (mm)    (mm)    (mm)   (t/ha)  ------------------(kg nutrient/ha)-------------------- (kg/ha)
    1  156.35   19.97   24.83    8.81   30.87    0.00  104.02   59.98   82.82   53.74   27.60    0.01    0.07    1.08    0.04     7.25    0.00    0.90    0.00
    2  217.86   44.10   38.53   21.69   74.35    0.00  110.82   53.52   62.44  105.02   67.72    0.02    0.13    3.03    0.49    11.48    0.01    1.43    0.00
    3  115.36    6.83   19.18   41.75   35.97    0.00  107.45   58.08   74.76   68.80    5.22    0.00    0.03    0.86    0.39     1.80    0.00    0.22    0.00
    4   40.79    0.92    7.21   36.23    7.22    0.00   98.75   35.87   57.68   45.95    0.45    0.00    0.01    0.14    0.20     0.22    0.00    0.03    0.00
    5   25.78    0.61    2.76   22.17    2.54    0.00   87.33   31.79   74.46   26.83    0.50    0.00    0.00    0.04    0.16     0.10    0.00    0.01    0.00
    6   19.59    0.60    1.81    9.44    0.18    0.00   84.73   19.74   59.01   12.86    0.68    0.00    0.00    0.00    0.14     0.06    0.00    0.01    0.00
    7    2.56    0.01    0.30    1.53    0.02    0.00   70.03   17.63   96.87    2.68    0.00    0.00    0.00    0.00    0.17     0.01    0.00    0.00    0.00
    8    9.90    0.04    0.94    0.12    0.02    0.00   63.07   16.37   89.00    1.73    0.07    0.00    0.01    0.00    0.15     0.02    0.00    0.00    0.00
    9   18.87    0.26    1.44    0.01    0.04    0.00   63.86   16.53   91.20    2.16    0.56    0.00    0.01    0.00    0.13     0.07    0.00    0.01    0.00
   10   89.57    6.22   12.06    0.50    8.67    0.00   89.03   36.76   69.50   19.13    4.32    0.00    0.03    0.22    0.38     0.88    0.00    0.11    0.00
   11  113.67   14.86   14.98    3.69   18.77    0.00  102.27   50.63   79.07   33.47   16.81    0.00    0.03    0.51    0.32     2.33    0.00    0.29    0.00
   12  100.81    8.08   16.16   13.38   26.11    0.00  102.38   51.02   83.20   38.36    9.22    0.00    0.04    0.83    0.28     1.25    0.00    0.15    0.00

 1984  911.11  102.49  140.21  159.30  204.76    0.00  102.38  447.92  920.00  410.72  133.14    0.05    0.36    6.72    2.85    25.47    0.01    3.16    0.00
1
    SWAT Sep 7    VER 2018/Rev 670                                                  

    General Input/Output section (file.cio):                                        
    2020-03-28 00:00:00 ARCGIS-SWAT interface AV                                    
                                                                                    
Annual Summary for Watershed in year    5 of simulation

UNIT                                    PERCO    TILE                           WATER     SED     NO3     NO3     NO3     NO3        N       P       P
TIME     PREC    SURQ    LATQ     GWQ    LATE       Q     SW       ET     PET   YIELD   YIELD    SURQ    LATQ    PERC    CROP  ORGANIC SOLUBLE ORGANIC TILENO3
         (mm)    (mm)    (mm)    (mm)    (mm)    (mm)    (mm)    (mm)    (mm)    (mm)   (t/ha)  ------------------(kg nutrient/ha)-------------------- (kg/ha)
    1   94.65    6.57   15.03   17.50   16.63    0.00  103.03   55.91   84.59   39.75    7.21    0.01    0.03    0.37    0.04     1.73    0.00    0.21    0.00
    2  153.46   29.66   26.51   17.63   43.86    0.00  106.91   48.66   63.05   74.40   33.80    0.02    0.06    1.38    0.47     9.04    0.00    1.12    0.00
    3  152.35   23.85   26.63   30.32   44.26    0.00  110.53   52.93   69.03   80.49   24.95    0.01    0.05    1.10    0.36     3.34    0.00    0.42    0.00
    4   85.04    7.45   19.04   35.47   25.25    0.00  103.46   43.57   57.20   64.70    5.03    0.01    0.04    0.74    0.21     1.12    0.00    0.14    0.00
    5   33.15    3.20    3.72   27.10    2.64    0.00   97.51   30.05   61.56   35.33    3.01    0.00    0.00    0.07    0.16     0.77    0.00    0.09    0.00
    6   14.35    0.38    1.77   12.40    0.58    0.00   85.66   24.05   66.64   15.67    0.19    0.00    0.00    0.01    0.13     0.05    0.00    0.01    0.00
    7   12.09    0.56    1.38    2.79    0.15    0.00   76.83   19.38   81.78    5.63    0.30    0.00    0.00    0.00    0.17     0.02    0.00    0.00    0.00
    8    4.41    0.00    0.31    0.28    0.01    0.00   65.01   16.54  105.94    1.28    0.00    0.00    0.00    0.00    0.15     0.00    0.00    0.00    0.00
    9   65.34    6.04    7.07    0.08    1.19    0.00   88.43   27.01   71.90   13.64    7.58    0.00    0.02    0.02    0.14     1.56    0.00    0.19    0.00
   10   32.90    1.26    4.32    0.46    1.50    0.00   79.74   34.91   98.23    6.33    0.57    0.00    0.01    0.02    0.26     0.04    0.00    0.01    0.00
   11   56.49    2.24    7.16    1.05    4.43    0.00   84.60   38.35   82.95   10.88    1.33    0.00    0.02    0.08    0.22     0.27    0.00    0.03    0.00
   12  124.80   11.19   18.02    3.31   22.23    0.00  104.53   51.72   77.08   32.72   10.58    0.00    0.04    0.64    0.25     1.59    0.00    0.20    0.00

 1985  829.01   92.41  130.97  148.39  162.73    0.00  104.53  443.09  919.95  380.84   94.57    0.06    0.28    4.44    2.57    19.52    0.01    2.42    0.00
1
    SWAT Sep 7    VER 2018/Rev 670                                                  

    General Input/Output section (file.cio):                                        
    2020-03-28 00:00:00 ARCGIS-SWAT interface AV                                    
                                                                                    
Annual Summary for Watershed in year    6 of simulation

UNIT                                    PERCO    TILE                           WATER     SED     NO3     NO3     NO3     NO3        N       P       P
TIME     PREC    SURQ    LATQ     GWQ    LATE       Q     SW       ET     PET   YIELD   YIELD    SURQ    LATQ    PERC    CROP  ORGANIC SOLUBLE ORGANIC TILENO3
         (mm)    (mm)    (mm)    (mm)    (mm)    (mm)    (mm)    (mm)    (mm)    (mm)   (t/ha)  ------------------(kg nutrient/ha)-------------------- (kg/ha)
    1  188.64   27.82   33.10   15.13   60.83    0.00  110.30   59.43   73.57   76.28   34.48    0.02    0.10    2.18    0.04     7.63    0.00    0.94    0.00
    2  186.20   30.79   34.99   32.43   59.19    0.00  112.13   58.91   71.09   99.06   43.85    0.01    0.08    1.73    0.48     6.81    0.00    0.85    0.00
    3  193.65   28.44   40.00   52.65   68.04    0.00  110.92   59.79   71.04  122.71   25.70    0.02    0.07    1.59    0.30     3.94    0.00    0.49    0.00
    4   97.82   13.10   18.39   52.55   26.59    0.00  107.92   44.53   60.08   85.80    8.78    0.01    0.03    0.54    0.21     1.22    0.00    0.15    0.00
    5   24.22    2.90    4.20   36.82    4.38    0.00   88.87   33.26   84.86   45.84    2.52    0.00    0.00    0.07    0.17     0.64    0.00    0.08    0.00
    6    0.18    0.00    0.14   16.71    0.00    0.00   71.93   17.71   96.16   18.63    0.01    0.00    0.00    0.00    0.11     0.17    0.00    0.02    0.00
    7   13.25    0.04    1.21    3.54    0.04    0.00   69.71   14.49   70.72    6.02    0.03    0.00    0.00    0.00    0.14     0.00    0.00    0.00    0.00
    8   25.42    2.04    3.09    0.23    0.10    0.00   70.85   19.51   91.40    6.29    2.39    0.00    0.00    0.00    0.15     0.42    0.00    0.05    0.00
    9   45.61    3.63    5.83    0.09    0.76    0.00   79.26   27.26   82.06   10.23    6.20    0.00    0.01    0.01    0.14     0.29    0.00    0.04    0.00
   10   38.05    3.27    4.39    0.31    0.64    0.00   75.18   34.23  104.43    8.50    1.39    0.00    0.00    0.01    0.21     0.12    0.00    0.02    0.00
   11   52.21    2.66    6.24    0.63    1.70    0.00   75.69   41.62   95.49    9.93    1.65    0.00    0.01    0.04    0.40     0.28    0.00    0.03    0.00
   12  115.48   11.42   14.16    1.19   12.63    0.00  103.17   47.34   87.85   26.77   12.91    0.00    0.03    0.37    0.48     1.62    0.00    0.20    0.00

 1986  980.72  126.10  165.74  212.27  234.89    0.00  103.17  458.08  988.75  516.07  139.90    0.08    0.34    6.54    2.84    23.15    0.02    2.87    0.00
1
    SWAT Sep 7    VER 2018/Rev 670                                                  

    General Input/Output section (file.cio):                                        
    2020-03-28 00:00:00 ARCGIS-SWAT interface AV                                    
                                                                                    
Annual Summary for Watershed in year    7 of simulation

UNIT                                    PERCO    TILE                           WATER     SED     NO3     NO3     NO3     NO3        N       P       P
TIME     PREC    SURQ    LATQ     GWQ    LATE       Q     SW       ET     PET   YIELD   YIELD    SURQ    LATQ    PERC    CROP  ORGANIC SOLUBLE ORGANIC TILENO3
         (mm)    (mm)    (mm)    (mm)    (mm)    (mm)    (mm)    (mm)    (mm)    (mm)   (t/ha)  ------------------(kg nutrient/ha)-------------------- (kg/ha)
    1  171.76   27.37   28.13    9.09   46.12    0.00  108.15   64.67   87.37   65.04   32.57    0.02    0.07    1.34    0.09     8.17    0.00    1.01    0.00
    2  121.79   17.99   20.91   22.51   31.70    0.00  106.68   53.46   76.64   62.13   20.38    0.01    0.04    0.79    0.70     4.27    0.00    0.53    0.00
    3   86.37    9.83   15.37   29.00   18.79    0.00   97.82   52.88   83.43   55.33    6.70    0.01    0.02    0.39    0.34     1.06    0.00    0.13    0.00
    4   55.39   15.03    8.23   21.14    5.85    0.00   90.74   34.37   71.77   45.40   18.77    0.01    0.01    0.06    0.24     2.24    0.00    0.28    0.00
    5   24.73    3.20    2.85   11.26    0.68    0.00   81.00   28.39   83.00   18.19    4.99    0.00    0.00    0.01    0.15     0.36    0.00    0.04    0.00
    6    8.74    0.08    0.77    2.99    0.04    0.00   73.52   15.72   67.84    4.54    0.01    0.00    0.00    0.00    0.12     0.00    0.00    0.00    0.00
    7   13.59    0.47    1.59    0.53    0.17    0.00   67.37   18.07   88.40    3.14    0.16    0.00    0.00    0.00    0.17     0.01    0.00    0.00    0.00
    8   10.50    0.01    0.79    0.12    0.03    0.00   61.99   15.48   84.03    1.33    0.00    0.00    0.00    0.00    0.14     0.00    0.00    0.00    0.00
    9   18.42    0.68    0.95    0.02    0.09    0.00   60.61   18.28   96.84    1.94    0.67    0.00    0.00    0.00    0.18     0.18    0.00    0.02    0.00
   10   45.88    1.98    5.61    0.11    1.20    0.00   66.66   30.96  100.07    7.91    0.92    0.00    0.02    0.03    0.42     0.09    0.00    0.01    0.00
   11   77.47    4.64    9.29    0.65    4.88    0.00   82.65   42.45   81.76   14.73    3.89    0.00    0.02    0.15    1.01     0.51    0.00    0.06    0.00
   12   96.24    5.12   13.08    3.20   12.75    0.00   90.47   57.32   90.76   21.59    5.20    0.00    0.03    0.52    0.38     0.91    0.00    0.11    0.00

 1987  730.88   86.38  107.58  100.62  122.30    0.00   90.47  432.06 1011.90  301.26   94.26    0.05    0.21    3.29    3.94    17.79    0.01    2.20    0.00
1
    SWAT Sep 7    VER 2018/Rev 670                                                  

    General Input/Output section (file.cio):                                        
    2020-03-28 00:00:00 ARCGIS-SWAT interface AV                                    
                                                                                    
Annual Summary for Watershed in year    8 of simulation

UNIT                                    PERCO    TILE                           WATER     SED     NO3     NO3     NO3     NO3        N       P       P
TIME     PREC    SURQ    LATQ     GWQ    LATE       Q     SW       ET     PET   YIELD   YIELD    SURQ    LATQ    PERC    CROP  ORGANIC SOLUBLE ORGANIC TILENO3
         (mm)    (mm)    (mm)    (mm)    (mm)    (mm)    (mm)    (mm)    (mm)    (mm)   (t/ha)  ------------------(kg nutrient/ha)-------------------- (kg/ha)
    1  180.42   29.82   28.35    8.23   42.87    0.00  104.78   62.94   83.50   66.54   36.58    0.02    0.07    1.28    0.05     8.23    0.00    1.03    0.00
    2  133.13   27.68   24.84   23.24   35.86    0.00  101.64   50.32   72.03   76.59   36.39    0.01    0.06    1.12    0.61     7.06    0.01    0.88    0.00
    3  141.93   31.06   21.50   31.17   32.28    0.00  108.98   49.03   66.29   84.00   32.75    0.02    0.04    0.89    0.27     4.48    0.00    0.56    0.00
    4   80.43    9.01   14.41   28.74   21.94    0.00  104.61   40.76   52.93   53.95    8.66    0.01    0.03    0.58    0.21     1.18    0.00    0.15    0.00
    5   23.25    1.36    2.40   21.54    1.66    0.00   91.62   31.48   71.73   26.41    1.24    0.00    0.00    0.04    0.15     0.25    0.00    0.03    0.00
    6    0.68    0.00    0.24    9.18    0.00    0.00   74.65   18.19   90.77   10.35    0.00    0.00    0.00    0.00    0.12     0.00    0.00    0.00    0.00
    7    0.54    0.00    0.07    1.29    0.00    0.00   63.31   12.48  102.21    2.11    0.00    0.00    0.00    0.00    0.13     0.00    0.00    0.00    0.00
    8    2.32    0.00    0.09    0.06    0.00    0.00   55.56   10.49  107.26    0.72    0.00    0.00    0.00    0.00    0.13     0.00    0.00    0.00    0.00
    9   21.64    0.22    1.49    0.01    0.07    0.00   59.17   16.50   92.90    2.13    0.16    0.00    0.01    0.00    0.13     0.03    0.00    0.00    0.00
   10   71.26    3.99    9.59    0.33    3.94    0.00   75.48   37.05   84.48   14.24    1.98    0.00    0.03    0.10    0.32     0.12    0.00    0.02    0.00
   11   44.63    1.46    4.59    1.47    1.45    0.00   75.33   37.96   87.54    7.79    1.51    0.00    0.01    0.03    0.24     0.17    0.00    0.02    0.00
   12  129.71    9.60   17.69    2.33   18.16    0.00  102.12   54.97   84.18   29.69   11.98    0.00    0.03    0.53    0.11     1.15    0.00    0.14    0.00

 1988  829.95  114.20  125.26  127.59  158.21    0.00  102.12  422.17  995.81  374.50  131.25    0.07    0.28    4.59    2.49    22.66    0.02    2.82    0.00
1
    SWAT Sep 7    VER 2018/Rev 670                                                  

    General Input/Output section (file.cio):                                        
    2020-03-28 00:00:00 ARCGIS-SWAT interface AV                                    
                                                                                    
Annual Summary for Watershed in year    9 of simulation

UNIT                                    PERCO    TILE                           WATER     SED     NO3     NO3     NO3     NO3        N       P       P
TIME     PREC    SURQ    LATQ     GWQ    LATE       Q     SW       ET     PET   YIELD   YIELD    SURQ    LATQ    PERC    CROP  ORGANIC SOLUBLE ORGANIC TILENO3
         (mm)    (mm)    (mm)    (mm)    (mm)    (mm)    (mm)    (mm)    (mm)    (mm)   (t/ha)  ------------------(kg nutrient/ha)-------------------- (kg/ha)
    1  170.20   28.51   30.46   11.12   48.22    0.00  109.14   56.05   71.26   70.49   46.43    0.02    0.08    1.47    0.03     7.82    0.00    0.97    0.00
    2  153.66   22.74   29.54   26.81   53.18    0.00  108.82   48.62   61.63   79.80   30.76    0.01    0.07    1.72    0.41     5.98    0.00    0.74    0.00
    3  211.35   37.98   39.52   43.92   72.10    0.00  112.72   56.42   67.02  122.16   43.24    0.02    0.07    1.67    0.28     4.98    0.01    0.62    0.00
    4   76.95    9.68   17.17   48.40   18.43    0.00  106.27   41.65   56.77   77.45    7.25    0.01    0.02    0.33    0.18     0.43    0.00    0.05    0.00
    5   19.84    0.76    2.86   33.67    1.04    0.00   90.73   31.79   78.64   38.97    0.64    0.00    0.00    0.01    0.17     0.09    0.00    0.01    0.00
    6   12.85    0.42    1.46   15.07    0.25    0.00   82.40   19.44   65.27   18.31    0.40    0.00    0.00    0.00    0.11     0.01    0.00    0.00    0.00
    7    4.66    0.00    0.22    3.29    0.02    0.00   71.87   15.33   86.98    4.61    0.00    0.00    0.00    0.00    0.15     0.00    0.00    0.00    0.00
    8   21.52    0.16    1.94    0.29    0.10    0.00   71.67   19.69   80.81    3.22    0.33    0.00    0.00    0.00    0.14     0.02    0.00    0.00    0.00
    9   30.88    0.52    2.86    0.13    0.23    0.00   74.47   24.69   84.17    4.09    0.28    0.00    0.01    0.00    0.15     0.10    0.00    0.01    0.00
   10   77.94    6.44   10.17    0.44    5.85    0.00   89.89   39.45   73.18   17.50    3.07    0.01    0.01    0.10    0.34     0.23    0.00    0.03    0.00
   11   51.83    4.14    8.38    3.06    5.12    0.00   82.80   42.65   94.46   16.03    3.60    0.00    0.01    0.07    0.26     0.27    0.00    0.03    0.00
   12   37.72    0.38    4.73    3.20    1.51    0.00   79.15   35.13   99.28    8.67    0.19    0.00    0.01    0.03    0.19     0.01    0.00    0.00    0.00

 1989  869.40  111.73  149.30  189.41  206.06    0.00   79.15  430.92  919.46  461.30  136.18    0.07    0.30    5.43    2.40    19.95    0.02    2.48    0.00
1
    SWAT Sep 7    VER 2018/Rev 670                                                  

    General Input/Output section (file.cio):                                        
    2020-03-28 00:00:00 ARCGIS-SWAT interface AV                                    
                                                                                    
Annual Summary for Watershed in year   10 of simulation

UNIT                                    PERCO    TILE                           WATER     SED     NO3     NO3     NO3     NO3        N       P       P
TIME     PREC    SURQ    LATQ     GWQ    LATE       Q     SW       ET     PET   YIELD   YIELD    SURQ    LATQ    PERC    CROP  ORGANIC SOLUBLE ORGANIC TILENO3
         (mm)    (mm)    (mm)    (mm)    (mm)    (mm)    (mm)    (mm)    (mm)    (mm)   (t/ha)  ------------------(kg nutrient/ha)-------------------- (kg/ha)
    1  133.42   13.46   20.83    4.19   22.94    0.00   99.30   55.09   83.87   38.79   16.43    0.01    0.04    0.55    0.05     3.87    0.00    0.48    0.00
    2   63.53    4.81   10.18    8.97    9.43    0.00   97.26   41.71   74.14   24.28    3.72    0.00    0.02    0.18    0.50     0.99    0.00    0.12    0.00
    3   94.48    8.91   16.57   13.34   19.96    0.00   97.33   49.37   73.98   39.30   11.50    0.00    0.02    0.47    0.28     2.31    0.00    0.28    0.00
    4   46.64    5.22    7.63   12.69    5.73    0.00   90.90   35.52   63.99   26.14    1.51    0.01    0.01    0.06    0.21     0.26    0.00    0.03    0.00
    5   27.14    1.15    3.06    7.55    0.69    0.00   83.91   29.85   78.25   12.36    2.11    0.00    0.00    0.01    0.15     0.36    0.00    0.04    0.00
    6   42.38    6.22    4.44    2.56    1.13    0.00   89.82   24.67   59.95   13.58   10.57    0.01    0.01    0.03    0.12     1.04    0.00    0.13    0.00
    7    8.11    0.08    1.05    1.03    0.15    0.00   75.96   21.44   85.50    2.61    0.07    0.00    0.00    0.00    0.16     0.02    0.00    0.00    0.00
    8   20.03    0.79    2.53    0.21    0.29    0.00   71.22   21.64   96.23    3.80    1.59    0.00    0.01    0.01    0.14     0.07    0.00    0.01    0.00
    9   38.39    0.54    4.90    0.31    0.91    0.00   75.69   28.07   79.81    5.96    0.33    0.00    0.01    0.02    0.13     0.04    0.00    0.00    0.00
   10  108.06    9.06   14.45    1.26   19.15    0.00   94.45   44.40   69.62   24.66    5.77    0.00    0.03    0.71    0.36     2.10    0.00    0.26    0.00
   11  107.41   12.65   15.38    8.54   19.58    0.00  102.08   52.47   77.53   36.47   12.26    0.00    0.04    0.80    0.49     2.95    0.00    0.36    0.00
   12  114.17    8.55   18.78   13.29   24.60    0.00  105.61   58.08   77.56   41.55   11.07    0.00    0.04    0.84    0.37     1.80    0.00    0.22    0.00

 1990  803.76   71.43  119.81   73.94  124.55    0.00  105.61  462.33  920.44  269.49   76.92    0.05    0.22    3.68    2.97    15.79    0.01    1.94    0.00
1
    SWAT Sep 7    VER 2018/Rev 670                                                  

    General Input/Output section (file.cio):                                        
    2020-03-28 00:00:00 ARCGIS-SWAT interface AV                                    
                                                                                    
Annual Summary for Watershed in year   11 of simulation

UNIT                                    PERCO    TILE                           WATER     SED     NO3     NO3     NO3     NO3        N       P       P
TIME     PREC    SURQ    LATQ     GWQ    LATE       Q     SW       ET     PET   YIELD   YIELD    SURQ    LATQ    PERC    CROP  ORGANIC SOLUBLE ORGANIC TILENO3
         (mm)    (mm)    (mm)    (mm)    (mm)    (mm)    (mm)    (mm)    (mm)    (mm)   (t/ha)  ------------------(kg nutrient/ha)-------------------- (kg/ha)
    1   98.39    6.51   17.99   17.67   19.24    0.00  105.69   55.75   86.42   42.85    7.70    0.01    0.04    0.50    0.08     2.39    0.00    0.29    0.00
    2   93.82   10.26   15.66   17.24   16.75    0.00  103.38   54.23   79.46   43.65   12.99    0.01    0.03    0.48    0.68     3.29    0.00    0.41    0.00
    3  141.96   19.07   26.86   23.59   43.09    0.00  103.79   52.87   66.36   70.55   16.74    0.01    0.04    1.17    0.29     3.81    0.00    0.47    0.00
    4   54.77    5.25    9.04   24.79    9.52    0.00   98.25   37.77   60.94   40.18    4.42    0.01    0.02    0.25    0.20     0.68    0.00    0.08    0.00
    5   33.60    5.58    4.73   17.74    4.29    0.00   84.91   33.07   80.66   29.04    6.13    0.00    0.01    0.12    0.14     1.73    0.00    0.21    0.00
    6   12.61    0.58    1.52    6.86    0.12    0.00   75.47   20.41   86.94    9.78    0.83    0.00    0.00    0.00    0.11     0.02    0.00    0.00    0.00
    7    4.28    0.01    0.33    0.96    0.02    0.00   65.89   14.09   90.21    1.97    0.00    0.00    0.00    0.00    0.14     0.00    0.00    0.00    0.00
    8    0.98    0.00    0.11    0.06    0.00    0.00   54.93   12.55  115.95    0.68    0.00    0.00    0.00    0.00    0.13     0.00    0.00    0.00    0.00
    9   32.83    0.69    3.07    0.01    0.08    0.00   64.41   19.63   86.50    4.14    1.17    0.00    0.02    0.00    0.12     0.21    0.00    0.03    0.00
   10   82.69    6.28   10.61    0.31    5.15    0.00   85.25   38.91   80.62   17.32    3.64    0.01    0.02    0.14    0.24     0.48    0.00    0.06    0.00
   11   60.71    1.67    8.40    2.18    3.58    0.00   87.59   45.53   86.03   12.65    1.83    0.00    0.01    0.08    0.21     0.21    0.00    0.03    0.00
   12   60.23    1.37    6.76    2.72    3.78    0.00   88.58   47.11   99.93   11.03    1.10    0.00    0.01    0.11    0.26     0.31    0.00    0.04    0.00

 1991  676.88   57.27  105.08  114.14  105.61    0.00   88.58  431.91 1020.03  283.86   56.55    0.04    0.20    2.86    2.62    13.13    0.01    1.62    0.00
1
    SWAT Sep 7    VER 2018/Rev 670                                                  

    General Input/Output section (file.cio):                                        
    2020-03-28 00:00:00 ARCGIS-SWAT interface AV                                    
                                                                                    
Annual Summary for Watershed in year   12 of simulation

UNIT                                    PERCO    TILE                           WATER     SED     NO3     NO3     NO3     NO3        N       P       P
TIME     PREC    SURQ    LATQ     GWQ    LATE       Q     SW       ET     PET   YIELD   YIELD    SURQ    LATQ    PERC    CROP  ORGANIC SOLUBLE ORGANIC TILENO3
         (mm)    (mm)    (mm)    (mm)    (mm)    (mm)    (mm)    (mm)    (mm)    (mm)   (t/ha)  ------------------(kg nutrient/ha)-------------------- (kg/ha)
    1   63.01    2.15    9.59    3.38    6.48    0.00   86.51   47.57   89.00   15.41    2.34    0.00    0.02    0.17    0.06     0.87    0.00    0.11    0.00
    2   83.84    6.65   12.53    3.72    9.82    0.00   95.50   44.84   78.18   23.07    5.32    0.01    0.02    0.19    0.59     1.45    0.00    0.18    0.00
    3   89.62    8.40   15.47    7.94   18.12    0.00   91.44   53.12   82.11   31.72    5.99    0.01    0.03    0.64    0.39     3.24    0.00    0.40    0.00
    4   39.03    3.90    5.60    9.66    3.82    0.00   83.92   34.02   74.66   20.01    1.30    0.01    0.01    0.14    0.26     0.74    0.00    0.09    0.00
    5    4.98    0.00    0.67    5.87    0.02    0.00   66.41   22.67   95.40    6.95    0.00    0.00    0.00    0.00    0.14     0.01    0.00    0.00    0.00
    6   11.65    0.36    1.11    1.43    0.13    0.00   61.03   15.88   77.59    3.21    0.24    0.00    0.00    0.00    0.12     0.01    0.00    0.00    0.00
    7    9.54    0.24    1.01    0.18    0.03    0.00   54.83   15.05   89.93    1.69    0.02    0.00    0.01    0.00    0.15     0.02    0.00    0.00    0.00
    8   19.83    1.15    2.22    0.05    0.19    0.00   55.28   16.24   83.53    3.60    0.59    0.00    0.01    0.00    0.14     0.05    0.00    0.01    0.00
    9   17.71    0.17    1.54    0.09    0.18    0.00   55.43   15.75   97.54    1.93    0.08    0.00    0.01    0.00    0.12     0.02    0.00    0.00    0.00
   10   66.52    3.31    9.06    0.46    3.25    0.00   69.24   37.39   86.22   12.95    1.47    0.00    0.02    0.08    0.16     0.55    0.00    0.07    0.00
   11   38.01    0.39    4.27    1.10    1.15    0.00   66.96   34.99   91.32    5.86    0.40    0.00    0.01    0.02    0.22     0.12    0.00    0.01    0.00
   12   53.82    0.44    6.53    1.28    2.42    0.00   70.90   40.51   91.28    8.35    0.38    0.00    0.01    0.05    0.25     0.06    0.00    0.01    0.00

 1992  497.56   27.16   69.60   35.15   45.61    0.00   70.90  378.03 1036.79  134.76   18.14    0.03    0.14    1.29    2.59     7.13    0.00    0.88    0.00
1
    SWAT Sep 7    VER 2018/Rev 670                                                  

    General Input/Output section (file.cio):                                        
    2020-03-28 00:00:00 ARCGIS-SWAT interface AV                                    
                                                                                    
Annual Summary for Watershed in year   13 of simulation

UNIT                                    PERCO    TILE                           WATER     SED     NO3     NO3     NO3     NO3        N       P       P
TIME     PREC    SURQ    LATQ     GWQ    LATE       Q     SW       ET     PET   YIELD   YIELD    SURQ    LATQ    PERC    CROP  ORGANIC SOLUBLE ORGANIC TILENO3
         (mm)    (mm)    (mm)    (mm)    (mm)    (mm)    (mm)    (mm)    (mm)    (mm)   (t/ha)  ------------------(kg nutrient/ha)-------------------- (kg/ha)
    1  140.09   16.70   19.80    2.45   18.93    0.00  100.58   51.76   78.68   37.94   23.28    0.01    0.05    0.65    0.04     7.71    0.00    0.95    0.00
    2  141.52   22.02   26.89    9.00   39.18    0.00  105.87   49.04   65.51   59.03   27.81    0.01    0.09    1.84    0.44     9.11    0.01    1.12    0.00
    3  152.13   21.14   29.85   25.94   48.98    0.00  106.66   52.42   66.56   77.77   18.03    0.01    0.07    1.95    0.26     5.00    0.01    0.62    0.00
    4   96.99    9.72   19.22   31.40   28.14    0.00  106.61   41.09   48.96   61.33    5.34    0.01    0.04    0.91    0.17     0.88    0.00    0.11    0.00
    5   30.12    1.84    4.71   27.32    3.47    0.00   92.96   35.11   68.48   35.12    2.68    0.00    0.01    0.14    0.15     0.46    0.00    0.06    0.00
    6    6.48    0.16    1.03   14.23    0.07    0.00   78.94   20.05   80.68   16.41    0.02    0.00    0.00    0.00    0.12     0.01    0.00    0.00    0.00
    7   10.41    0.03    0.66    4.10    0.07    0.00   72.26   16.67   70.08    5.60    0.00    0.00    0.00    0.00    0.15     0.00    0.00    0.00    0.00
    8   21.47    0.98    2.34    0.57    0.72    0.00   70.66   19.34   82.55    4.50    1.32    0.00    0.01    0.01    0.12     0.06    0.00    0.01    0.00
    9   38.75    0.68    4.34    0.41    1.19    0.00   78.12   25.26   76.22    5.90    0.85    0.00    0.01    0.02    0.12     0.06    0.00    0.01    0.00
   10   89.76    4.42   13.17    1.54   12.02    0.00   90.63   46.72   73.11   19.47    2.16    0.00    0.02    0.33    0.22     0.40    0.00    0.05    0.00
   11  130.57    9.18   21.01    8.13   33.69    0.00  104.74   50.94   64.61   38.62    7.80    0.00    0.05    1.28    0.36     1.75    0.00    0.21    0.00
   12  157.04   13.94   28.94   22.90   49.82    0.00  110.25   58.93   68.01   66.51   15.71    0.00    0.08    1.78    0.32     3.53    0.01    0.43    0.00

 1993 1015.34  100.81  171.96  148.00  236.28    0.00  110.25  467.34  843.44  428.20  104.98    0.06    0.43    8.92    2.47    28.98    0.03    3.57    0.00
1
    SWAT Sep 7    VER 2018/Rev 670                                                  

    General Input/Output section (file.cio):                                        
    2020-03-28 00:00:00 ARCGIS-SWAT interface AV                                    
                                                                                    
Annual Summary for Watershed in year   14 of simulation

UNIT                                    PERCO    TILE                           WATER     SED     NO3     NO3     NO3     NO3        N       P       P
TIME     PREC    SURQ    LATQ     GWQ    LATE       Q     SW       ET     PET   YIELD   YIELD    SURQ    LATQ    PERC    CROP  ORGANIC SOLUBLE ORGANIC TILENO3
         (mm)    (mm)    (mm)    (mm)    (mm)    (mm)    (mm)    (mm)    (mm)    (mm)   (t/ha)  ------------------(kg nutrient/ha)-------------------- (kg/ha)
    1  176.83   23.20   28.80   32.72   55.22    0.00  113.14   63.15   77.56   83.60   31.35    0.01    0.07    1.85    0.05     8.66    0.00    1.06    0.00
    2  173.17   30.56   36.03   40.87   53.24    0.00  109.74   60.09   73.49  110.76   46.26    0.02    0.08    1.63    0.49     6.75    0.01    0.84    0.00
    3  161.21   27.47   28.80   49.53   48.86    0.00  112.34   53.80   65.69  107.32   26.35    0.02    0.04    0.93    0.23     3.86    0.01    0.48    0.00
    4   83.33    7.10   16.19   43.02   23.86    0.00  108.11   42.03   53.91   68.63    3.60    0.01    0.02    0.41    0.18     1.03    0.00    0.13    0.00
    5   33.92    3.23    5.56   31.97    7.04    0.00   91.32   36.04   77.62   42.63    3.72    0.00    0.01    0.14    0.16     0.93    0.00    0.11    0.00
    6    5.90    0.04    0.60   15.40    0.01    0.00   79.37   17.69   77.52   17.56    0.01    0.00    0.00    0.00    0.11     0.00    0.00    0.00    0.00
    7    5.06    0.16    0.49    3.51    0.04    0.00   69.83   14.46   86.94    5.40    0.10    0.00    0.00    0.00    0.15     0.00    0.00    0.00    0.00
    8    6.02    0.00    0.29    0.32    0.02    0.00   61.79   14.31   95.22    1.54    0.00    0.00    0.00    0.00    0.12     0.00    0.00    0.00    0.00
    9   28.81    1.11    2.32    0.04    0.09    0.00   67.96   19.17   75.53    4.08    1.09    0.00    0.01    0.00    0.14     0.28    0.00    0.03    0.00
   10   51.51    2.58    6.71    0.17    2.11    0.00   75.06   32.93   85.81   10.04    1.69    0.00    0.01    0.05    0.34     0.15    0.00    0.02    0.00
   11   65.94    3.22    8.24    1.63    5.36    0.00   83.03   41.48   81.47   13.50    2.04    0.00    0.01    0.13    0.32     0.30    0.00    0.04    0.00
   12  102.42    5.75   12.88    3.78   17.62    0.00   98.43   48.49   78.47   22.65    4.99    0.00    0.02    0.46    0.77     0.94    0.00    0.12    0.00

 1994  894.12  104.41  146.92  222.96  213.47    0.00   98.43  443.66  929.25  487.70  121.19    0.07    0.28    5.60    3.04    22.90    0.03    2.83    0.00
1
    SWAT Sep 7    VER 2018/Rev 670                                                  

    General Input/Output section (file.cio):                                        
    2020-03-28 00:00:00 ARCGIS-SWAT interface AV                                    
                                                                                    
Annual Summary for Watershed in year   15 of simulation

UNIT                                    PERCO    TILE                           WATER     SED     NO3     NO3     NO3     NO3        N       P       P
TIME     PREC    SURQ    LATQ     GWQ    LATE       Q     SW       ET     PET   YIELD   YIELD    SURQ    LATQ    PERC    CROP  ORGANIC SOLUBLE ORGANIC TILENO3
         (mm)    (mm)    (mm)    (mm)    (mm)    (mm)    (mm)    (mm)    (mm)    (mm)   (t/ha)  ------------------(kg nutrient/ha)-------------------- (kg/ha)
    1  128.77   16.66   21.03   10.09   24.86    0.00  102.80   63.04   88.31   48.33   20.86    0.01    0.05    0.58    0.06     6.13    0.00    0.76    0.00
    2  124.33   17.62   19.83   14.55   29.41    0.00  109.68   48.84   62.37   52.18   23.56    0.01    0.04    0.65    0.53     3.35    0.01    0.42    0.00
    3  161.49   23.19   31.94   28.71   55.66    0.00  108.36   53.04   63.16   85.02   20.51    0.01    0.06    1.31    0.26     3.88    0.01    0.48    0.00
    4   51.96    4.80   10.77   35.08   15.49    0.00   92.13   39.63   71.68   51.92    3.36    0.00    0.02    0.37    0.25     0.76    0.00    0.09    0.00
    5   19.90    0.26    1.96   23.85    0.06    0.00   81.87   28.50   82.08   27.26    0.20    0.00    0.00    0.00    0.14     0.03    0.00    0.00    0.00
    6    3.71    0.00    0.27    9.07    0.02    0.00   69.26   16.45   85.01   10.31    0.00    0.00    0.00    0.00    0.10     0.00    0.00    0.00    0.00
    7    6.51    0.00    0.52    0.93    0.01    0.00   60.48   15.29   93.49    2.23    0.00    0.00    0.00    0.00    0.15     0.00    0.00    0.00    0.00
    8    4.66    0.00    0.38    0.05    0.02    0.00   52.66   12.69  107.42    1.01    0.00    0.00    0.00    0.00    0.14     0.00    0.00    0.00    0.00
    9   26.59    0.31    1.91    0.01    0.11    0.00   60.83   16.00   83.42    2.63    0.19    0.00    0.01    0.00    0.16     0.05    0.00    0.01    0.00
   10   55.69    1.96    5.85    0.07    1.83    0.00   73.16   33.35   81.68    8.18    1.00    0.00    0.01    0.05    0.30     0.32    0.00    0.04    0.00
   11   79.42    4.92   11.29    1.34    8.50    0.00   83.13   45.49   85.90   17.87    4.76    0.00    0.02    0.30    0.41     0.92    0.00    0.11    0.00
   12   89.71    7.84   10.44    3.65   14.02    0.00   95.57   43.37   84.95   22.04    7.98    0.00    0.02    0.43    0.28     2.07    0.00    0.25    0.00

 1995  752.73   77.55  116.21  127.39  149.97    0.00   95.57  415.69  989.46  328.97   82.42    0.04    0.23    3.68    2.78    17.52    0.02    2.16    0.00
1
    SWAT Sep 7    VER 2018/Rev 670                                                  

    General Input/Output section (file.cio):                                        
    2020-03-28 00:00:00 ARCGIS-SWAT interface AV                                    
                                                                                    
Annual Summary for Watershed in year   16 of simulation

UNIT                                    PERCO    TILE                           WATER     SED     NO3     NO3     NO3     NO3        N       P       P
TIME     PREC    SURQ    LATQ     GWQ    LATE       Q     SW       ET     PET   YIELD   YIELD    SURQ    LATQ    PERC    CROP  ORGANIC SOLUBLE ORGANIC TILENO3
         (mm)    (mm)    (mm)    (mm)    (mm)    (mm)    (mm)    (mm)    (mm)    (mm)   (t/ha)  ------------------(kg nutrient/ha)-------------------- (kg/ha)
    1  135.33   11.64   21.99    9.84   33.42    0.00  105.27   57.56   79.10   43.81   14.63    0.01    0.05    0.91    0.04     4.23    0.00    0.52    0.00
    2  159.86   18.84   32.08   21.70   50.19    0.00  107.26   57.02   66.28   73.33   24.90    0.01    0.07    1.35    0.48     5.15    0.01    0.64    0.00
    3  131.68   22.59   22.61   34.86   36.40    0.00  108.94   48.89   60.06   80.92   21.58    0.01    0.04    0.89    0.26     6.08    0.01    0.75    0.00
    4   72.73    8.34   14.31   33.20   19.14    0.00  101.53   40.47   56.28   57.31    3.55    0.01    0.03    0.42    0.19     0.77    0.00    0.09    0.00
    5   15.12    0.35    1.95   23.73    0.62    0.00   86.67   27.96   73.57   27.26    0.11    0.00    0.00    0.00    0.15     0.04    0.00    0.00    0.00
    6    3.34    0.00    0.32    9.58    0.03    0.00   73.49   16.70   83.96   10.90    0.00    0.00    0.00    0.00    0.10     0.00    0.00    0.00    0.00
    7    2.48    0.00    0.12    1.45    0.00    0.00   63.79   12.60   94.65    2.38    0.00    0.00    0.00    0.00    0.15     0.00    0.00    0.00    0.00
    8   16.50    0.47    1.67    0.13    0.17    0.00   62.63   15.62   78.26    2.88    0.06    0.00    0.01    0.00    0.11     0.01    0.00    0.00    0.00
    9   31.05    0.97    3.06    0.11    0.48    0.00   69.66   19.55   77.44    4.58    0.66    0.00    0.01    0.01    0.14     0.10    0.00    0.01    0.00
   10   55.52    2.32    7.01    0.57    3.12    0.00   78.24   34.47   84.55   10.23    1.11    0.00    0.01    0.07    0.38     0.12    0.00    0.01    0.00
   11   58.34    2.17    7.24    1.76    4.44    0.00   82.90   40.01   78.16   11.44    1.98    0.00    0.01    0.08    0.21     0.28    0.00    0.03    0.00
   12   99.73    5.90   15.21    3.92   11.65    0.00   93.18   56.87   80.28   25.34    5.98    0.00    0.02    0.28    0.35     0.84    0.00    0.10    0.00

 1996  781.67   73.61  127.57  140.84  159.66    0.00   93.18  427.73  912.59  350.38   74.55    0.05    0.25    4.03    2.56    17.61    0.02    2.17    0.00
1
    SWAT Sep 7    VER 2018/Rev 670                                                  

    General Input/Output section (file.cio):                                        
    2020-03-28 00:00:00 ARCGIS-SWAT interface AV                                    
                                                                                    
Annual Summary for Watershed in year   17 of simulation

UNIT                                    PERCO    TILE                           WATER     SED     NO3     NO3     NO3     NO3        N       P       P
TIME     PREC    SURQ    LATQ     GWQ    LATE       Q     SW       ET     PET   YIELD   YIELD    SURQ    LATQ    PERC    CROP  ORGANIC SOLUBLE ORGANIC TILENO3
         (mm)    (mm)    (mm)    (mm)    (mm)    (mm)    (mm)    (mm)    (mm)    (mm)   (t/ha)  ------------------(kg nutrient/ha)-------------------- (kg/ha)
    1  129.52   13.82   20.03    7.38   28.22    0.00  102.56   56.27   78.91   41.42   19.21    0.01    0.04    0.73    0.05     4.99    0.01    0.61    0.00
    2  154.68   22.38   29.37   16.30   51.30    0.00  107.22   46.82   56.75   68.65   24.18    0.01    0.07    1.47    0.43     6.43    0.01    0.79    0.00
    3   95.43   15.43   19.62   33.05   22.20    0.00   97.90   50.00   79.67   69.08   12.48    0.01    0.03    0.43    0.29     2.12    0.00    0.26    0.00
    4   47.31    4.67    7.08   24.87    4.01    0.00   96.67   33.48   61.64   37.63    2.22    0.01    0.01    0.04    0.18     0.32    0.00    0.04    0.00
    5   15.92    0.52    1.83   13.37    0.35    0.00   83.44   27.06   73.88   16.65    0.45    0.00    0.00    0.00    0.14     0.07    0.00    0.01    0.00
    6    3.54    0.01    0.25    3.40    0.00    0.00   71.36   15.79   80.96    4.38    0.00    0.00    0.00    0.00    0.10     0.00    0.00    0.00    0.00
    7    2.01    0.00    0.13    0.41    0.00    0.00   61.27   12.63   94.71    1.13    0.00    0.00    0.00    0.00    0.15     0.00    0.00    0.00    0.00
    8   28.87    0.87    3.06    0.11    0.30    0.00   66.80   19.40   68.85    4.48    0.46    0.00    0.01    0.01    0.13     0.27    0.00    0.03    0.00
    9   46.92    4.45    4.80    0.25    0.95    0.00   79.84   23.36   84.58    9.68    4.84    0.01    0.01    0.01    0.25     1.46    0.00    0.18    0.00
   10   57.93    4.43    8.12    0.75    4.42    0.00   82.21   38.39   83.96   13.19    2.85    0.00    0.01    0.08    0.74     0.42    0.00    0.05    0.00
   11  101.62    8.58   15.10    3.41   14.59    0.00   91.92   54.10   82.77   27.82    6.39    0.00    0.03    0.47    0.82     1.38    0.00    0.17    0.00
   12  134.60   15.04   20.97    8.49   31.10    0.00  105.46   52.04   69.96   44.73   15.86    0.00    0.04    0.98    0.48     3.03    0.01    0.37    0.00

 1997  818.34   90.20  130.37  111.78  157.45    0.00  105.46  429.35  916.65  338.84   88.94    0.06    0.26    4.22    3.77    20.50    0.04    2.53    0.00
1
    SWAT Sep 7    VER 2018/Rev 670                                                  

    General Input/Output section (file.cio):                                        
    2020-03-28 00:00:00 ARCGIS-SWAT interface AV                                    
                                                                                    
Annual Summary for Watershed in year   18 of simulation

UNIT                                    PERCO    TILE                           WATER     SED     NO3     NO3     NO3     NO3        N       P       P
TIME     PREC    SURQ    LATQ     GWQ    LATE       Q     SW       ET     PET   YIELD   YIELD    SURQ    LATQ    PERC    CROP  ORGANIC SOLUBLE ORGANIC TILENO3
         (mm)    (mm)    (mm)    (mm)    (mm)    (mm)    (mm)    (mm)    (mm)    (mm)   (t/ha)  ------------------(kg nutrient/ha)-------------------- (kg/ha)
    1  166.71   26.39   30.32   20.64   47.27    0.00  108.25   59.53   77.58   77.88   31.44    0.02    0.07    1.34    0.15     8.74    0.01    1.08    0.00
    2  158.25   26.07   28.21   29.68   50.52    0.00  111.41   49.22   59.73   84.62   26.83    0.02    0.07    1.96    1.01     4.54    0.01    0.57    0.00
    3  137.55   20.45   27.05   41.18   39.34    0.00  108.25   56.16   70.97   90.23   15.75    0.01    0.04    0.82    0.68     3.01    0.01    0.37    0.00
    4   50.16    3.84    9.07   36.38    9.41    0.00   93.85   44.10   71.78   50.83    1.90    0.00    0.01    0.17    0.46     0.32    0.00    0.04    0.00
    5    3.61    0.01    0.47   21.52    0.02    0.00   72.44   25.34   96.76   23.40    0.00    0.00    0.00    0.00    0.17     0.00    0.00    0.00    0.00
    6    9.60    0.06    1.01    6.64    0.11    0.00   65.46   15.77   73.21    8.79    0.01    0.00    0.00    0.00    0.12     0.00    0.00    0.00    0.00
    7    0.08    0.00    0.08    0.70    0.00    0.00   55.00   11.22  106.09    1.64    0.00    0.00    0.00    0.00    0.14     0.00    0.00    0.00    0.00
    8    8.24    0.03    0.63    0.05    0.01    0.00   51.78   11.33   94.92    1.35    0.00    0.00    0.00    0.00    0.19     0.00    0.00    0.00    0.00
    9   18.12    0.18    1.20    0.01    0.04    0.00   54.65   13.88   91.76    1.83    0.14    0.00    0.00    0.00    0.14     0.03    0.00    0.00    0.00
   10   92.97    7.83   12.49    0.52    9.44    0.00   79.97   36.94   74.49   21.20    4.06    0.01    0.02    0.22    0.24     0.60    0.00    0.08    0.00
   11   68.30    2.38    9.85    4.01    8.16    0.00   83.74   45.04   79.98   16.60    1.56    0.00    0.01    0.24    0.32     0.34    0.00    0.04    0.00
   12   98.34    4.05   14.13    6.45   14.14    0.00   98.23   50.32   73.43   24.95    4.12    0.00    0.02    0.32    0.10     0.58    0.00    0.07    0.00

 1998  811.92   91.29  134.51  167.78  178.46    0.00   98.23  418.85  970.69  403.33   85.81    0.06    0.26    5.07    3.72    18.15    0.03    2.26    0.00
1
    SWAT Sep 7    VER 2018/Rev 670                                                  

    General Input/Output section (file.cio):                                        
    2020-03-28 00:00:00 ARCGIS-SWAT interface AV                                    
                                                                                    
Annual Summary for Watershed in year   19 of simulation

UNIT                                    PERCO    TILE                           WATER     SED     NO3     NO3     NO3     NO3        N       P       P
TIME     PREC    SURQ    LATQ     GWQ    LATE       Q     SW       ET     PET   YIELD   YIELD    SURQ    LATQ    PERC    CROP  ORGANIC SOLUBLE ORGANIC TILENO3
         (mm)    (mm)    (mm)    (mm)    (mm)    (mm)    (mm)    (mm)    (mm)    (mm)   (t/ha)  ------------------(kg nutrient/ha)-------------------- (kg/ha)
    1  138.72   15.13   23.58   11.13   35.99    0.00  104.98   55.89   76.19   50.14   25.86    0.01    0.05    0.90    0.04     4.43    0.00    0.55    0.00
    2  199.79   31.89   38.08   22.12   67.25    0.00  110.99   55.34   63.22   92.61   42.75    0.02    0.09    1.87    0.42     8.75    0.02    1.09    0.00
    3  134.16   15.03   27.59   43.20   38.40    0.00  107.89   59.37   71.18   87.32    9.83    0.01    0.04    0.78    0.27     1.94    0.01    0.24    0.00
    4   79.75    7.63   14.87   39.23   19.92    0.00  105.32   40.86   54.86   63.19    3.34    0.01    0.02    0.37    0.17     0.60    0.00    0.07    0.00
    5   23.24    0.74    3.69   28.37    4.83    0.00   88.87   31.37   68.94   34.25    0.65    0.00    0.00    0.09    0.15     0.17    0.00    0.02    0.00
    6    5.46    0.01    0.29   13.31    0.04    0.00   76.77   17.56   75.69   14.81    0.00    0.00    0.00    0.00    0.10     0.00    0.00    0.00    0.00
    7   10.30    0.07    0.87    3.04    0.05    0.00   69.87   16.68   83.96    4.95    0.01    0.00    0.00    0.00    0.15     0.00    0.00    0.00    0.00
    8    2.55    0.00    0.14    0.18    0.01    0.00   59.08   13.82  108.07    1.06    0.00    0.00    0.00    0.00    0.11     0.00    0.00    0.00    0.00
    9   56.39    2.42    5.22    0.04    1.32    0.00   81.75   23.81   72.97    8.11    1.61    0.00    0.02    0.03    0.11     0.53    0.00    0.06    0.00
   10   65.60    4.61    9.89    1.80    6.30    0.00   80.73   46.87   91.93   16.85    2.63    0.00    0.01    0.16    0.20     0.47    0.00    0.06    0.00
   11   71.08    4.35    7.45    2.70    7.74    0.00   90.67   40.85   82.36   14.73    3.77    0.00    0.01    0.23    0.42     0.51    0.00    0.06    0.00
   12  106.28    3.61   17.18    7.27   25.66    0.00  100.24   49.88   65.47   28.54    3.39    0.00    0.04    0.66    0.14     0.56    0.00    0.07    0.00

 1999  893.32   85.49  148.87  172.39  207.51    0.00  100.24  452.31  914.83  416.56   93.85    0.06    0.29    5.08    2.28    17.97    0.04    2.23    0.00
1
    SWAT Sep 7    VER 2018/Rev 670                                                  

    General Input/Output section (file.cio):                                        
    2020-03-28 00:00:00 ARCGIS-SWAT interface AV                                    
                                                                                    
Annual Summary for Watershed in year   20 of simulation

UNIT                                    PERCO    TILE                           WATER     SED     NO3     NO3     NO3     NO3        N       P       P
TIME     PREC    SURQ    LATQ     GWQ    LATE       Q     SW       ET     PET   YIELD   YIELD    SURQ    LATQ    PERC    CROP  ORGANIC SOLUBLE ORGANIC TILENO3
         (mm)    (mm)    (mm)    (mm)    (mm)    (mm)    (mm)    (mm)    (mm)    (mm)   (t/ha)  ------------------(kg nutrient/ha)-------------------- (kg/ha)
    1  154.58   16.62   24.97   17.15   45.43    0.00  108.38   56.76   69.27   58.83   20.06    0.01    0.06    1.39    0.04     5.63    0.01    0.69    0.00
    2  171.59   23.82   33.95   27.70   61.05    0.00  112.28   49.03   54.84   86.67   33.62    0.01    0.09    2.08    0.41     7.35    0.01    0.92    0.00
    3  176.63   27.33   33.92   46.42   58.33    0.00  112.24   57.61   66.27  108.88   20.53    0.02    0.05    1.18    0.26     4.05    0.01    0.50    0.00
    4   52.98    4.33   11.01   43.87    9.19    0.00  102.60   41.07   58.45   61.18    0.66    0.01    0.01    0.10    0.18     0.24    0.00    0.03    0.00
    5   28.89    1.96    3.65   28.23    3.14    0.00   91.46   32.03   66.51   35.43    2.27    0.00    0.00    0.05    0.15     0.26    0.00    0.03    0.00
    6    7.47    0.13    0.84   12.01    0.18    0.00   79.62   18.63   76.81   14.26    0.03    0.00    0.00    0.00    0.12     0.00    0.00    0.00    0.00
    7   10.07    0.00    0.76    2.52    0.01    0.00   72.96   16.37   75.15    4.32    0.01    0.00    0.00    0.00    0.13     0.00    0.00    0.00    0.00
    8   19.02    0.42    1.57    0.44    0.29    0.00   70.51   19.57   72.40    3.21    0.05    0.00    0.00    0.01    0.12     0.01    0.00    0.00    0.00
    9   24.85    0.30    2.20    0.17    0.32    0.00   72.18   20.56   78.16    3.23    0.19    0.00    0.01    0.01    0.14     0.03    0.00    0.00    0.00
   10   72.41    4.31    9.88    0.63    5.31    0.00   86.39   38.36   68.92   15.25    2.44    0.00    0.02    0.09    0.23     0.29    0.00    0.04    0.00
   11   39.89    1.12    3.81    1.89    2.01    0.00   85.97   33.11  100.59    7.10    0.81    0.00    0.01    0.05    0.38     0.08    0.00    0.01    0.00
   12  116.27   11.28   13.72    3.79   18.93    0.00  101.52   55.01   83.89   28.42   12.00    0.00    0.02    0.53    0.38     2.11    0.01    0.26    0.00

 2000  874.66   91.65  140.27  184.82  204.21    0.00  101.52  438.10  871.26  426.79   92.66    0.05    0.27    5.47    2.55    20.06    0.03    2.48    0.00
1
    SWAT Sep 7    VER 2018/Rev 670                                                  

    General Input/Output section (file.cio):                                        
    2020-03-28 00:00:00 ARCGIS-SWAT interface AV                                    
                                                                                    
Annual Summary for Watershed in year   21 of simulation

UNIT                                    PERCO    TILE                           WATER     SED     NO3     NO3     NO3     NO3        N       P       P
TIME     PREC    SURQ    LATQ     GWQ    LATE       Q     SW       ET     PET   YIELD   YIELD    SURQ    LATQ    PERC    CROP  ORGANIC SOLUBLE ORGANIC TILENO3
         (mm)    (mm)    (mm)    (mm)    (mm)    (mm)    (mm)    (mm)    (mm)    (mm)   (t/ha)  ------------------(kg nutrient/ha)-------------------- (kg/ha)
    1  212.75   32.70   40.59   15.64   70.34    0.00  111.48   58.16   65.00   90.09   37.12    0.02    0.11    2.36    0.04    10.01    0.01    1.24    0.00
    2  132.20   16.90   25.73   33.11   40.73    0.00  111.97   49.28   59.55   76.62   20.14    0.01    0.05    1.15    0.43     3.62    0.01    0.45    0.00
    3  177.92   25.87   34.74   43.76   66.04    0.00  111.18   52.28   58.35  105.76   23.50    0.01    0.04    1.10    0.23     3.86    0.01    0.48    0.00
    4   42.19    4.44    8.76   44.16    7.89    0.00   98.23   36.57   61.28   59.08    2.35    0.00    0.01    0.13    0.18     0.41    0.00    0.05    0.00
    5   37.16    3.40    4.26   27.95    2.04    0.00   93.97   32.07   69.36   37.19    5.32    0.00    0.00    0.02    0.15     0.61    0.00    0.07    0.00
    6    5.04    0.04    0.59   11.71    0.12    0.00   80.14   18.66   73.94   13.61    0.00    0.00    0.00    0.00    0.11     0.00    0.00    0.00    0.00
    7   20.19    0.70    1.91    2.39    0.40    0.00   77.78   19.85   73.11    6.02    0.07    0.00    0.00    0.00    0.15     0.01    0.00    0.00    0.00
    8   13.62    0.14    1.49    0.34    0.24    0.00   71.19   18.82   84.51    2.73    0.09    0.00    0.00    0.01    0.12     0.00    0.00    0.00    0.00
    9   34.86    0.53    3.79    0.25    0.74    0.00   75.70   25.53   67.72    5.15    0.24    0.00    0.01    0.01    0.14     0.03    0.00    0.00    0.00
   10   77.25    5.01    8.80    0.93    6.31    0.00   90.27   40.91   79.92   14.82    2.89    0.00    0.01    0.11    0.59     0.32    0.00    0.04    0.00
   11   98.32    6.36   13.98    3.11   13.76    0.00  100.27   53.98   85.87   23.87    5.40    0.00    0.02    0.33    0.72     0.62    0.00    0.08    0.00
   12   88.72    4.76   13.55    8.77   14.36    0.00   97.81   59.81   86.43   27.81    4.61    0.00    0.02    0.35    0.34     0.84    0.00    0.10    0.00

 2001  940.23  100.84  158.17  192.12  222.96    0.00   97.81  465.94  865.05  462.76  101.73    0.07    0.29    5.58    3.20    20.34    0.03    2.52    0.00
1
    SWAT Sep 7    VER 2018/Rev 670                                                  

    General Input/Output section (file.cio):                                        
    2020-03-28 00:00:00 ARCGIS-SWAT interface AV                                    
                                                                                    
Annual Summary for Watershed in year   22 of simulation

UNIT                                    PERCO    TILE                           WATER     SED     NO3     NO3     NO3     NO3        N       P       P
TIME     PREC    SURQ    LATQ     GWQ    LATE       Q     SW       ET     PET   YIELD   YIELD    SURQ    LATQ    PERC    CROP  ORGANIC SOLUBLE ORGANIC TILENO3
         (mm)    (mm)    (mm)    (mm)    (mm)    (mm)    (mm)    (mm)    (mm)    (mm)   (t/ha)  ------------------(kg nutrient/ha)-------------------- (kg/ha)
    1   94.97    8.63   14.32   10.05   15.96    0.00  103.92   48.43   85.99   33.01   11.59    0.01    0.03    0.31    0.05     2.94    0.00    0.36    0.00
    2  200.38   32.52   41.16   17.79   64.96    0.00  110.57   54.91   61.84   92.47   37.57    0.02    0.08    1.45    0.51     7.45    0.02    0.93    0.00
    3  178.86   25.78   35.69   41.32   62.25    0.00  111.26   55.24   62.76  103.81   26.36    0.01    0.06    1.50    0.24     4.51    0.02    0.56    0.00
    4   70.77    7.90   13.62   43.28   16.25    0.00  102.62   43.74   60.76   66.46    3.94    0.01    0.02    0.25    0.21     0.68    0.00    0.08    0.00
    5   24.31    1.05    2.37   29.16    0.43    0.00   94.73   28.87   62.76   34.05    1.36    0.00    0.00    0.01    0.14     0.10    0.00    0.01    0.00
    6    6.98    0.11    0.94   12.12    0.33    0.00   81.05   19.84   74.25   14.38    0.02    0.00    0.00    0.00    0.10     0.00    0.00    0.00    0.00
    7   32.59    0.43    3.82    3.09    1.26    0.00   85.84   22.48   52.50    8.32    0.47    0.00    0.01    0.02    0.16     0.08    0.00    0.01    0.00
    8   16.14    0.36    1.52    0.88    0.28    0.00   78.28   21.92   76.37    3.50    0.02    0.00    0.00    0.00    0.13     0.00    0.00    0.00    0.00
    9   53.55    2.26    4.92    0.38    1.19    0.00   89.54   33.48   68.86    8.00    2.04    0.00    0.01    0.02    0.17     0.31    0.00    0.04    0.00
   10   92.12    9.08   12.14    1.32   16.18    0.00  101.74   40.13   65.50   22.53    5.69    0.01    0.02    0.36    0.41     0.86    0.00    0.11    0.00
   11  101.64    6.77   16.66    7.93   23.80    0.00  105.61   52.04   70.49   32.25    6.61    0.00    0.03    0.63    0.51     1.00    0.00    0.12    0.00
   12  114.55    7.58   18.28   16.52   29.00    0.00  108.06   56.43   75.48   43.01    8.33    0.00    0.03    0.74    0.49     0.89    0.01    0.11    0.00

 2002  986.86  102.48  165.43  183.84  231.88    0.00  108.06  477.51  817.56  461.80  103.99    0.06    0.30    5.29    3.10    18.82    0.06    2.33    0.00
1
    SWAT Sep 7    VER 2018/Rev 670                                                  

    General Input/Output section (file.cio):                                        
    2020-03-28 00:00:00 ARCGIS-SWAT interface AV                                    
                                                                                    
Annual Summary for Watershed in year   23 of simulation

UNIT                                    PERCO    TILE                           WATER     SED     NO3     NO3     NO3     NO3        N       P       P
TIME     PREC    SURQ    LATQ     GWQ    LATE       Q     SW       ET     PET   YIELD   YIELD    SURQ    LATQ    PERC    CROP  ORGANIC SOLUBLE ORGANIC TILENO3
         (mm)    (mm)    (mm)    (mm)    (mm)    (mm)    (mm)    (mm)    (mm)    (mm)   (t/ha)  ------------------(kg nutrient/ha)-------------------- (kg/ha)
    1  126.50   12.49   21.62   22.62   32.87    0.00  110.19   57.38   76.47   57.40   13.51    0.01    0.04    0.68    0.07     3.77    0.01    0.47    0.00
    2  171.66   28.85   33.86   27.74   53.16    0.00  110.82   54.37   64.24   91.41   37.56    0.02    0.07    1.31    0.63     6.10    0.02    0.76    0.00
    3  186.36   29.62   36.27   44.94   63.62    0.00  114.02   53.34   61.54  111.85   27.75    0.01    0.05    1.29    0.24     5.82    0.02    0.72    0.00
    4   68.84    7.62   15.66   46.27   21.80    0.00  101.17   40.00   57.61   71.88    5.30    0.01    0.03    0.46    0.19     1.24    0.00    0.15    0.00
    5   18.94    0.42    2.24   31.10    0.67    0.00   89.97   27.64   66.73   35.47    0.15    0.00    0.00    0.01    0.14     0.01    0.00    0.00    0.00
    6    1.86    0.00    0.16   12.09    0.03    0.00   74.34   17.79   89.34   13.62    0.00    0.00    0.00    0.00    0.11     0.00    0.00    0.00    0.00
    7    2.93    0.00    0.15    1.78    0.00    0.00   65.02   12.68   88.75    3.04    0.00    0.00    0.00    0.00    0.14     0.00    0.00    0.00    0.00
    8   25.59    0.93    2.79    0.28    0.37    0.00   68.72   18.06   76.47    4.83    1.08    0.00    0.01    0.01    0.13     0.33    0.00    0.04    0.00
    9   28.15    1.32    2.93    0.22    0.45    0.00   70.17   22.44   82.84    5.07    1.52    0.00    0.01    0.01    0.13     0.07    0.00    0.01    0.00
   10   29.38    1.65    2.94    0.32    0.80    0.00   67.02   27.40  100.48    5.29    0.66    0.00    0.01    0.02    0.54     0.14    0.00    0.02    0.00
   11   44.13    0.52    3.90    0.48    1.09    0.00   74.72   30.64   88.76    5.31    0.32    0.00    0.01    0.03    0.58     0.08    0.00    0.01    0.00
   12  134.14   10.01   19.37    2.09   21.10    0.00   98.93   58.68   76.15   31.77    8.70    0.00    0.04    0.60    0.11     1.10    0.01    0.14    0.00

 2003  838.46   93.43  141.89  189.93  195.96    0.00   98.93  420.42  929.39  436.93   96.54    0.06    0.26    4.42    3.02    18.65    0.07    2.32    0.00
1
    SWAT Sep 7    VER 2018/Rev 670                                                  

    General Input/Output section (file.cio):                                        
    2020-03-28 00:00:00 ARCGIS-SWAT interface AV                                    
                                                                                    
Annual Summary for Watershed in year   24 of simulation

UNIT                                    PERCO    TILE                           WATER     SED     NO3     NO3     NO3     NO3        N       P       P
TIME     PREC    SURQ    LATQ     GWQ    LATE       Q     SW       ET     PET   YIELD   YIELD    SURQ    LATQ    PERC    CROP  ORGANIC SOLUBLE ORGANIC TILENO3
         (mm)    (mm)    (mm)    (mm)    (mm)    (mm)    (mm)    (mm)    (mm)    (mm)   (t/ha)  ------------------(kg nutrient/ha)-------------------- (kg/ha)
    1   90.43    9.38   16.00    9.68   16.96    0.00   96.27   50.89   83.30   35.44   10.20    0.01    0.03    0.32    0.07     2.14    0.00    0.27    0.00
    2  163.72   26.48   30.59   16.63   46.43    0.00  104.38   52.22   65.87   74.28   32.46    0.01    0.05    1.00    0.50     7.25    0.02    0.90    0.00
    3  118.97   12.20   22.10   26.49   30.62    0.00  106.26   51.81   69.86   61.57   10.84    0.01    0.02    0.46    0.29     1.55    0.01    0.19    0.00
    4   43.59    4.28    9.05   25.91    6.83    0.00   94.05   37.99   63.43   40.29    0.98    0.01    0.01    0.10    0.21     0.17    0.00    0.02    0.00
    5   14.66    0.64    1.60   16.59    0.39    0.00   78.97   27.78   84.55   19.79    0.11    0.00    0.00    0.00    0.14     0.02    0.00    0.00    0.00
    6   18.59    0.07    1.84    5.39    0.36    0.00   77.54   17.77   64.58    8.07    0.04    0.00    0.00    0.00    0.11     0.01    0.00    0.00    0.00
    7   15.79    1.54    2.10    1.40    0.49    0.00   69.67   20.24   82.92    5.66    0.26    0.00    0.00    0.01    0.15     0.05    0.00    0.01    0.00
    8   15.29    0.17    1.47    0.31    0.13    0.00   65.86   17.68   79.34    2.41    0.04    0.00    0.00    0.00    0.12     0.00    0.00    0.00    0.00
    9   46.94    3.98    4.43    0.31    0.73    0.00   76.43   27.16   76.64    8.71    3.24    0.00    0.01    0.01    0.12     0.84    0.00    0.10    0.00
   10   79.24    6.04   10.72    1.18   10.84    0.00   84.46   43.11   74.88   18.56    2.92    0.00    0.02    0.28    0.33     1.12    0.00    0.14    0.00
   11   82.58    6.52   10.97    6.08   12.53    0.00   87.70   49.95   79.39   23.90    5.73    0.00    0.02    0.42    0.51     1.26    0.00    0.15    0.00
   12  145.80   10.32   22.20    9.87   34.03    0.00  106.24   58.24   72.78   42.64   10.75    0.00    0.04    1.00    0.39     1.64    0.01    0.20    0.00

 2004  835.60   81.61  133.07  119.85  160.32    0.00  106.24  454.82  897.54  341.32   77.58    0.06    0.22    3.61    2.93    16.04    0.04    1.98    0.00
1
    SWAT Sep 7    VER 2018/Rev 670                                                  

    General Input/Output section (file.cio):                                        
    2020-03-28 00:00:00 ARCGIS-SWAT interface AV                                    
                                                                                    
Annual Summary for Watershed in year   25 of simulation

UNIT                                    PERCO    TILE                           WATER     SED     NO3     NO3     NO3     NO3        N       P       P
TIME     PREC    SURQ    LATQ     GWQ    LATE       Q     SW       ET     PET   YIELD   YIELD    SURQ    LATQ    PERC    CROP  ORGANIC SOLUBLE ORGANIC TILENO3
         (mm)    (mm)    (mm)    (mm)    (mm)    (mm)    (mm)    (mm)    (mm)    (mm)   (t/ha)  ------------------(kg nutrient/ha)-------------------- (kg/ha)
    1   94.28    7.70   16.47   19.47   18.44    0.00  101.07   58.34   91.62   44.37    9.61    0.01    0.04    0.42    0.07     3.05    0.00    0.37    0.00
    2   97.94   10.64   16.30   18.62   20.00    0.00  101.19   51.63   69.59   46.26   13.86    0.01    0.03    0.49    0.84     2.82    0.01    0.35    0.00
    3  131.97   15.28   23.60   22.34   37.52    0.00  105.72   50.36   62.37   61.99   10.31    0.01    0.03    0.79    0.31     3.03    0.01    0.37    0.00
    4   42.21    3.36    8.04   23.75    6.52    0.00   94.53   37.27   62.20   36.21    1.06    0.00    0.01    0.09    0.25     0.19    0.00    0.02    0.00
    5   10.05    0.09    1.06   14.04    0.03    0.00   77.22   26.95   87.34   16.13    0.06    0.00    0.00    0.00    0.14     0.01    0.00    0.00    0.00
    6    0.66    0.00    0.06    3.51    0.00    0.00   63.53   14.79   96.40    4.30    0.00    0.00    0.00    0.00    0.09     0.00    0.00    0.00    0.00
    7    6.20    0.02    0.68    0.29    0.01    0.00   57.33   12.17   97.17    1.58    0.02    0.00    0.00    0.00    0.15     0.00    0.00    0.00    0.00
    8    5.59    0.00    0.37    0.04    0.01    0.00   51.17   11.94  100.19    0.85    0.00    0.00    0.00    0.00    0.12     0.00    0.00    0.00    0.00
    9   22.54    0.15    1.88    0.01    0.07    0.00   54.13   17.69   87.40    2.36    0.08    0.00    0.01    0.00    0.11     0.01    0.00    0.00    0.00
   10   82.34    7.80   11.12    0.46    3.82    0.00   73.07   40.54   79.70   19.64    3.32    0.01    0.02    0.07    0.19     0.44    0.00    0.05    0.00
   11   46.41    1.16    5.28    1.59    2.29    0.00   71.32   40.00   87.90    8.24    0.93    0.00    0.01    0.05    0.44     0.31    0.00    0.04    0.00
   12  118.59    6.47   16.77    2.39   15.44    0.00  101.01   47.76   69.53   25.70    6.94    0.00    0.03    0.41    0.26     1.20    0.00    0.15    0.00

 2005  658.76   52.68  101.63  106.51  104.15    0.00  101.01  409.44  991.42  267.62   46.18    0.04    0.18    2.32    2.97    11.06    0.02    1.36    0.00
1
    SWAT Sep 7    VER 2018/Rev 670                                                  

    General Input/Output section (file.cio):                                        
    2020-03-28 00:00:00 ARCGIS-SWAT interface AV                                    
                                                                                    
Annual Summary for Watershed in year   26 of simulation

UNIT                                    PERCO    TILE                           WATER     SED     NO3     NO3     NO3     NO3        N       P       P
TIME     PREC    SURQ    LATQ     GWQ    LATE       Q     SW       ET     PET   YIELD   YIELD    SURQ    LATQ    PERC    CROP  ORGANIC SOLUBLE ORGANIC TILENO3
         (mm)    (mm)    (mm)    (mm)    (mm)    (mm)    (mm)    (mm)    (mm)    (mm)   (t/ha)  ------------------(kg nutrient/ha)-------------------- (kg/ha)
    1  165.58   25.40   29.16    8.89   43.50    0.00  106.68   61.58   79.38   63.70   31.94    0.02    0.07    1.22    0.05     9.34    0.01    1.15    0.00
    2  134.98   14.84   26.12   23.06   40.61    0.00  109.71   50.48   63.18   64.58   17.48    0.01    0.06    1.11    0.55     3.33    0.01    0.41    0.00
    3  158.10   21.71   30.83   35.28   54.46    0.00  112.70   47.78   54.36   88.71   17.17    0.01    0.05    1.26    0.26     4.13    0.01    0.51    0.00
    4   72.71    7.02   17.82   40.52   25.30    0.00   97.93   40.50   59.27   67.06    3.14    0.01    0.03    0.58    0.21     0.78    0.00    0.10    0.00
    5    4.16    0.00    0.56   29.87    0.01    0.00   78.15   24.26   91.39   31.84    0.00    0.00    0.00    0.00    0.13     0.00    0.00    0.00    0.00
    6   12.59    0.20    1.23   13.20    0.06    0.00   72.51   17.05   69.07   15.78    0.01    0.00    0.00    0.00    0.11     0.00    0.00    0.00    0.00
    7    2.20    0.00    0.16    2.31    0.01    0.00   62.23   12.92  100.17    3.41    0.00    0.00    0.00    0.00    0.13     0.00    0.00    0.00    0.00
    8   17.62    0.13    1.59    0.16    0.08    0.00   61.00   17.44   82.96    2.60    0.00    0.00    0.01    0.00    0.12     0.00    0.00    0.00    0.00
    9   31.10    0.34    2.66    0.09    0.17    0.00   65.56   23.64   83.93    3.60    0.27    0.00    0.01    0.00    0.14     0.07    0.00    0.01    0.00
   10   80.17    7.99   10.01    0.23    6.21    0.00   85.31   34.97   79.84   18.48    3.77    0.01    0.02    0.15    0.40     0.51    0.00    0.06    0.00
   11  103.19    6.60   17.80    4.17   17.62    0.00   99.07   47.56   63.29   29.03    4.83    0.00    0.03    0.39    0.37     0.88    0.00    0.11    0.00
   12  124.59   11.25   18.68    9.52   27.22    0.00  107.00   57.48   82.17   39.45   11.04    0.00    0.03    0.75    0.36     1.99    0.00    0.24    0.00

 2006  906.99   95.48  156.61  167.29  215.25    0.00  107.00  435.67  909.02  428.26   89.65    0.07    0.30    5.46    2.83    21.02    0.04    2.59    0.00
1
    SWAT Sep 7    VER 2018/Rev 670                                                  

    General Input/Output section (file.cio):                                        
    2020-03-28 00:00:00 ARCGIS-SWAT interface AV                                    
                                                                                    
Annual Summary for Watershed in year   27 of simulation

UNIT                                    PERCO    TILE                           WATER     SED     NO3     NO3     NO3     NO3        N       P       P
TIME     PREC    SURQ    LATQ     GWQ    LATE       Q     SW       ET     PET   YIELD   YIELD    SURQ    LATQ    PERC    CROP  ORGANIC SOLUBLE ORGANIC TILENO3
         (mm)    (mm)    (mm)    (mm)    (mm)    (mm)    (mm)    (mm)    (mm)    (mm)   (t/ha)  ------------------(kg nutrient/ha)-------------------- (kg/ha)
    1  129.14   12.82   23.55   19.13   32.48    0.00  105.88   62.82   81.68   56.41   14.93    0.01    0.05    0.85    0.12     3.98    0.00    0.49    0.00
    2   89.76    9.68   13.90   22.19   18.42    0.00  104.58   49.12   68.80   46.42    9.16    0.01    0.02    0.39    0.66     2.48    0.01    0.31    0.00
    3  189.77   28.97   36.16   29.60   68.10    0.00  111.56   47.80   52.90   95.68   23.63    0.02    0.07    1.77    0.23     6.09    0.01    0.75    0.00
    4   69.11    6.43   15.15   37.93   17.74    0.00  103.75   41.15   53.59   61.23    1.82    0.01    0.03    0.40    0.21     0.55    0.00    0.07    0.00
    5   16.92    0.32    2.14   27.36    0.67    0.00   86.86   31.59   76.95   31.19    0.41    0.00    0.00    0.01    0.14     0.05    0.00    0.01    0.00
    6    0.52    0.00    0.10   11.01    0.00    0.00   70.18   17.76   98.30   12.22    0.00    0.00    0.00    0.00    0.11     0.00    0.00    0.00    0.00
    7    7.90    0.15    0.73    1.90    0.05    0.00   63.90   13.72   83.03    3.69    0.00    0.00    0.00    0.00    0.14     0.00    0.00    0.00    0.00
    8    4.40    0.06    0.27    0.14    0.01    0.00   57.17   11.33  101.06    1.14    0.00    0.00    0.00    0.00    0.13     0.00    0.00    0.00    0.00
    9   24.38    0.29    2.47    0.03    0.09    0.00   60.86   18.22   87.67    3.28    0.11    0.00    0.01    0.00    0.12     0.01    0.00    0.00    0.00
   10   77.55    4.94    8.86    0.23    4.97    0.00   81.99   36.17   93.44   14.21    2.88    0.01    0.02    0.11    0.28     0.54    0.00    0.07    0.00
   11   63.77    3.07    9.29    1.80    5.18    0.00   87.18   42.38   86.67   14.66    2.50    0.00    0.01    0.14    0.38     0.69    0.00    0.08    0.00
   12  100.28    5.99   13.88    3.61   11.00    0.00   99.70   56.00   95.11   23.76    6.46    0.00    0.02    0.28    0.35     1.84    0.00    0.23    0.00

 2007  773.50   72.73  126.51  154.93  158.69    0.00   99.70  428.06  979.21  363.91   61.91    0.05    0.24    3.95    2.87    16.23    0.03    2.00    0.00
1
    SWAT Sep 7    VER 2018/Rev 670                                                  

    General Input/Output section (file.cio):                                        
    2020-03-28 00:00:00 ARCGIS-SWAT interface AV                                    
                                                                                    
Annual Summary for Watershed in year   28 of simulation

UNIT                                    PERCO    TILE                           WATER     SED     NO3     NO3     NO3     NO3        N       P       P
TIME     PREC    SURQ    LATQ     GWQ    LATE       Q     SW       ET     PET   YIELD   YIELD    SURQ    LATQ    PERC    CROP  ORGANIC SOLUBLE ORGANIC TILENO3
         (mm)    (mm)    (mm)    (mm)    (mm)    (mm)    (mm)    (mm)    (mm)    (mm)   (t/ha)  ------------------(kg nutrient/ha)-------------------- (kg/ha)
    1  196.69   31.44   35.77   10.12   57.46    0.00  108.43   60.75   74.75   77.53   42.82    0.03    0.08    1.37    0.05     7.75    0.01    0.96    0.00
    2  154.80   24.80   30.72   25.66   49.89    0.00  112.00   45.97   57.07   81.75   28.92    0.02    0.07    1.52    0.44     5.35    0.02    0.66    0.00
    3   87.13    7.29   18.43   38.82   20.49    0.00  105.76   50.11   67.85   65.92    4.89    0.01    0.02    0.33    0.23     0.85    0.00    0.10    0.00
    4   34.39    1.31    5.90   29.33    4.19    0.00   95.03   35.24   62.34   37.90    0.22    0.00    0.01    0.06    0.18     0.08    0.00    0.01    0.00
    5   13.30    0.31    1.43   15.81    0.26    0.00   81.78   25.15   83.75   18.66    0.13    0.00    0.00    0.00    0.14     0.01    0.00    0.00    0.00
    6    8.71    0.07    0.77    4.29    0.11    0.00   72.00   17.97   82.69    6.01    0.02    0.00    0.00    0.00    0.11     0.00    0.00    0.00    0.00
    7    1.99    0.00    0.12    0.59    0.00    0.00   61.96   12.46   92.37    1.41    0.00    0.00    0.00    0.00    0.13     0.00    0.00    0.00    0.00
    8    9.10    0.02    0.78    0.06    0.01    0.00   56.11   14.64   95.95    1.38    0.00    0.00    0.00    0.00    0.13     0.00    0.00    0.00    0.00
    9   22.08    0.26    1.70    0.02    0.14    0.00   59.12   16.92   83.28    2.35    0.06    0.00    0.01    0.00    0.15     0.01    0.00    0.00    0.00
[...]
     78  78   I-Bd-c-5   .118E+03   70.00  100.00   13.64    0.00    0.00    0.00    0.20 1109.28   55.11  586.14  442.06    1.69    0.11    7.15   11.58    4.63   55.11
     79  79   I-Bh-Tv-   .124E+03   79.00  120.00    2.36    0.00    0.00    0.00    0.20  590.83   23.58  110.17  436.47   24.19    0.13   22.24    0.00    0.00   23.56
     80  80   I-Bh-Tv-   .136E+03   79.00  120.00    3.46    0.00    0.00    0.00    0.20  895.00   84.18  359.53  425.15   96.35    0.33   27.44    0.00    0.00   84.17
     81  81   I-Bh-Tv-   .242E+03   79.00  120.00    4.05    0.00    0.00    0.00    0.20  476.30   12.12   59.31  389.82   19.60    0.39   21.89    0.00    0.00   12.11
     82  82   I-To-c-5   .116E+03   73.00  110.00    0.85    0.00    0.00    0.00    0.20  925.33   44.75  353.66  491.68    8.74    0.01   16.68    0.06    0.00   44.75
     83  83   I-To-c-5   .118E+03   79.00  110.00    2.59    0.00    0.00    0.00    0.20  923.73   79.27  342.72  470.19   54.16    0.07   23.07    0.00    0.00   79.27
     84  84   I-Bh-Tv-   .482E+03   79.00  120.00    3.27    0.00    0.00    0.00    0.20  963.65   82.14  389.65  463.62   72.90    0.32   27.72    0.00    0.00   82.10
     85  85   I-Bd-c-5   .106E+03   70.00  100.00   11.80    0.00    0.00    0.00    0.20 1872.16  344.00  986.14  502.20   16.29    0.15   22.51    2.86    0.00  344.00
     86  86   GLACIER-   .188E+03   84.00   15.24    4.08    0.00    0.00    0.00    0.20  903.44  129.93  484.77  265.44    0.05    0.26    0.19    0.00    0.00  129.90
     87  87   I-Bh-Tv-   .742E+03   79.00  120.00    3.92    0.00    0.00    0.00    0.20  471.67    6.25   54.86  406.06    2.22    0.61   10.43    0.01    0.00    6.25
     88  88   I-Hl-Kl-   .203E+03   84.00  120.00    4.80    0.00    0.00    0.00    0.20  687.18   71.04  171.75  421.36  123.45    0.14   16.62    0.00    0.00   71.03
     89  89   I-Bh-Tv-   .427E+03   79.00  120.00    3.11    0.00    0.00    0.00    0.20  930.07   78.20  358.55  463.62   62.20    0.17   27.58    0.00    0.00   78.20
     90  90   I-Bh-Tv-   .397E+03   79.00  120.00    4.48    0.00    0.00    0.00    0.20  538.17   15.85   94.51  408.23   16.94    0.41   21.62    0.00    0.00   15.85
     91  91   Th8-a-56   .153E+03   69.00  190.00    1.13    0.00    0.00    0.00    0.20  998.11   39.27  404.32  518.88    6.12    0.13   60.80    0.00    0.00   39.27
     92  92   I-Bh-Tv-   .258E+03   79.00  120.00    2.87    0.00    0.00    0.00    0.20  575.37   13.38  110.84  430.35   12.78    0.18   20.72    0.00    0.00   13.38
     93  93   I-Bd-c-5   .116E+03   70.00  100.00   11.58    0.00    0.00    0.00    0.20 1807.54  316.09  938.16  513.65   11.49    0.14   21.13    6.59    1.83  316.08
     94  94   I-Bh-Tv-   .394E+03   79.00  120.00    5.22    0.00    0.00    0.00    0.20  798.02   61.87  290.31  422.41  111.28    0.42   27.68    0.00    0.00   61.88
     95  95   Tv5-b-56   .174E+03   79.00  140.00    3.01    0.00    0.00    0.00    0.20  480.53   12.45   43.87  401.61   12.72    0.15   14.79    0.00    0.00   12.45
     96  96   I-To-c-5   .207E+03   79.00  110.00    4.19    0.00    0.00    0.00    0.20  746.63   55.47  229.75  437.21   79.16    0.23   23.64    0.00    0.00   55.47
     97  97   I-Hl-Kl-   .125E+03   77.00  120.00    9.18    0.00    0.00    0.00    0.20  881.84   65.91  278.68  509.44    3.39    0.03    5.87    8.79    3.67   65.90
     98  98   I-Bd-c-5   .146E+03   70.00  100.00   11.42    0.00    0.00    0.00    0.20 1305.13  151.36  634.90  487.02    4.85    0.12   15.20    6.56    1.60  151.36
     99  99   I-To-c-5   .619E+03   79.00  110.00    3.02    0.00    0.00    0.00    0.20  900.06   68.39  330.84  470.24   34.39    0.08   22.84    0.00    0.00   68.40
    100 100   I-Bh-Tv-   .122E+03   79.00  120.00    3.73    0.00    0.00    0.00    0.20  698.30   39.32  209.74  428.21   75.20    0.37   26.37    0.00    0.00   39.32
    101 101   I-Bh-Tv-   .145E+03   79.00  120.00    3.20    0.00    0.00    0.00    0.20  537.29   10.44   74.81  431.61   13.30    0.20   19.56    0.00    0.00   10.44
    102 102   I-Bh-Tv-   .612E+02   79.00  120.00    6.00    0.00    0.00    0.00    0.20  817.59   78.17  288.90  427.05  242.49    0.45   28.29    0.00    0.00   78.17
    103 103   I-Bd-c-5   .174E+03   70.00  100.00   12.57    0.00    0.00    0.00    0.20 3316.38 1005.04 1655.64  598.92  203.72    0.28   27.85    8.90    3.90 1005.01
    104 104   I-Hl-Kl-   .425E+03   84.00  120.00    5.06    0.00    0.00    0.00    0.20  669.85   59.78  135.19  453.70  118.30    0.14   16.42    0.00    0.00   59.77
    105 105   I-Bh-Tv-   .847E+02   79.00  120.00    7.23    0.00    0.00    0.00    0.20  644.08   28.30  168.05  426.78  105.97    0.50   26.61    0.00    0.00   28.30
    106 106   I-Hl-Kl-   .243E+03   84.00  120.00    3.92    0.00    0.00    0.00    0.20  457.46   31.25   18.70  393.16   42.21    0.15   16.24    0.00    0.00   31.25
    107 107   I-Bd-c-5   .169E+03   70.00  100.00   13.01    0.00    0.00    0.00    0.20  974.40   39.53  503.25  408.21    0.76    0.10    4.30   10.41    3.87   39.52
    108 108   I-Bd-c-5   .685E+02   70.00  100.00   15.38    0.00    0.00    0.00    0.20 1891.28  290.44 1035.34  527.81   43.25    0.30   25.34    9.99    4.01  290.44
    109 109   I-Bh-Tv-   .820E+03   79.00  120.00    3.84    0.00    0.00    0.00    0.20  881.41   58.71  329.91  468.18   57.95    0.36   26.51    0.00    0.00   58.74
    110 110   Tv5-b-56   .161E+03   79.00  140.00    3.73    0.00    0.00    0.00    0.20  498.98    6.69   50.11  438.91    1.11    0.12    3.70    0.05    0.00    6.69
    111 111   I-Hl-Kl-   .122E+03   84.00  120.00    3.75    0.00    0.00    0.00    0.20  691.99   69.55  158.64  440.34  141.76    0.12   16.77    0.00    0.00   69.55
    112 112   I-Hl-Kl-   .184E+03   84.00  120.00   11.77    0.00    0.00    0.00    0.20  575.89   54.10   70.83  429.71  330.54    0.19   19.69    0.00    0.00   54.10
    113 113   GLACIER-   .119E+03   84.00   15.24    5.46    0.00    0.00    0.00    0.20  885.78  118.98  486.06  259.67    0.06    0.29    0.23    0.00    0.00  118.96
    114 114   I-Bh-Tv-   .815E+02   79.00  120.00    2.90    0.00    0.00    0.00    0.20  450.35    6.41   25.69  398.39    7.30    0.15   14.51    0.00    0.00    6.41
    115 115   I-Bh-Tv-   .311E+03   79.00  120.00    3.29    0.00    0.00    0.00    0.20  609.77   17.05  151.76  421.25   21.34    0.35   23.26    0.00    0.00   17.05
    116 116   I-Hl-Kl-   .436E+03   84.00  120.00    5.24    0.00    0.00    0.00    0.20  722.02   86.30  159.19  451.45  128.16    0.12   18.03    0.00    0.00   86.30
    117 117   I-Bd-c-5   .206E+03   70.00  100.00   14.88    0.00    0.00    0.00    0.20  979.11   40.86  497.16  418.57    1.21    0.12    5.64   11.45    4.54   40.85
    118 118   I-Hl-Kl-   .166E+03   77.00  120.00   12.17    0.00    0.00    0.00    0.20 1137.68  153.49  473.67  477.50  149.52    0.12   16.10    5.08    2.59  153.46
    119 119   Tv5-b-56   .507E+02   79.00  140.00    4.03    0.00    0.00    0.00    0.20  453.68    8.87   46.10  397.86    6.26    0.23   10.05    0.03    0.00    8.87
    120 120   Tv5-b-56   .256E+03   79.00  140.00    4.14    0.00    0.00    0.00    0.20  472.75    9.88   47.48  407.04    6.04    0.35   12.29    0.01    0.00    9.88
    121 121   I-Hl-Kl-   .147E+03   84.00  120.00    3.09    0.00    0.00    0.00    0.20  801.76  115.63  211.64  449.46  187.57    0.11   16.88    0.00    0.00  115.62
    122 122   I-Hl-Kl-   .680E+02   84.00  120.00    7.05    0.00    0.00    0.00    0.20  553.31   37.46   57.45  439.08  160.58    0.16   16.70    0.00    0.00   37.46
    123 123   I-Bd-c-5   .487E+02   70.00  100.00   14.11    0.00    0.00    0.00    0.20 1217.53   90.39  639.06  458.89   93.14    0.33   25.41    5.03    3.43   90.39
    124 124   I-Bh-Tv-   .858E+02   79.00  120.00    2.17    0.00    0.00    0.00    0.20  786.24   63.59  236.38  455.47   62.81    0.03   26.36    0.00    0.00   63.59
    125 125   I-Hl-Kl-   .253E+02   84.00  120.00    8.22    0.00    0.00    0.00    0.20  553.31   37.45   59.66  437.01  182.44    0.18   16.83    0.00    0.00   37.45
    126 126   I-Bh-Tv-   .173E+03   79.00  120.00    3.92    0.00    0.00    0.00    0.20  612.76   30.72  139.98  421.56   50.46    0.39   26.29    0.00    0.00   30.72
    127 127   I-Bh-Tv-   .119E+03   79.00  120.00    2.95    0.00    0.00    0.00    0.20  642.29   31.38  140.99  446.48   37.72    0.14   25.28    0.00    0.00   31.38
    128 128   I-Hl-Kl-   .128E+04   84.00  120.00    8.91    0.00    0.00    0.00    0.20  795.73  101.19  205.59  463.75  190.49    0.18   17.28    0.00    0.00  101.23
    129 129   I-Hl-Kl-   .227E+03   84.00  120.00    5.24    0.00    0.00    0.00    0.20  756.65   89.64  172.82  468.76  205.34    0.13   17.40    0.00    0.00   89.63
    130 130   I-Hl-Kl-   .262E+03   84.00  120.00    2.97    0.00    0.00    0.00    0.20  687.07   91.49   97.45  472.95   53.61    0.13   17.28    0.00    0.00   91.50
    131 131   I-Hl-Kl-   .149E+03   84.00  120.00    7.39    0.00    0.00    0.00    0.20  439.11   13.23   22.97  392.58   34.66    0.18   13.20    0.00    0.00   13.23
    132 132   I-Hl-Kl-   .612E+02   79.00  120.00   12.14    0.00    0.00    0.00    0.20  593.29   26.31   67.97  473.55    2.50    0.02    4.25    1.90    0.00   26.31
    133 133   Tv5-b-56   .309E+03   79.00  140.00    5.87    0.00    0.00    0.00    0.20  568.83   21.98   77.24  450.91   17.13    0.27   18.07    0.02    0.00   21.98
    134 134   I-Hl-Kl-   .501E+03   84.00  120.00   10.99    0.00    0.00    0.00    0.20  748.87  106.71  177.48  439.30  436.15    0.19   18.55    0.00    0.00  106.71
    135 135   I-Hl-Kl-   .214E+03   84.00  120.00    4.82    0.00    0.00    0.00    0.20  649.15   60.99  142.98  422.78  110.24    0.14   16.83    0.00    0.00   60.99
    136 136   I-Hl-Kl-   .121E+03   84.00  120.00    4.80    0.00    0.00    0.00    0.20  504.69   22.23   50.83  413.62   47.00    0.15   14.35    0.00    0.00   22.22
    137 137   I-Hl-Kl-   .197E+03   79.00  120.00   13.51    0.00    0.00    0.00    0.20  902.24  107.72  286.78  479.89  661.02    0.20   17.72    0.06    0.00  107.72
    138 138   I-Hl-Kl-   .151E+03   84.00  120.00    4.36    0.00    0.00    0.00    0.20  556.65   34.31   81.87  419.22   62.55    0.14   16.10    0.00    0.00   34.31
    139 139   I-Hl-Kl-   .154E+03   84.00  120.00    3.23    0.00    0.00    0.00    0.20  463.91   21.51   33.19  387.48   30.96    0.12   14.15    0.00    0.00   21.51
    140 140   I-Hl-Kl-   .309E+03   84.00  120.00    5.87    0.00    0.00    0.00    0.20  448.36   17.76   22.98  392.99   41.77    0.17   13.96    0.00    0.00   17.77
    141 141   Tv5-b-56   .221E+03   79.00  140.00    4.64    0.00    0.00    0.00    0.20  509.88    7.01   55.11  443.74    3.21    0.15    7.14    0.05    0.00    7.01
    142 142   I-Bh-Tv-   .259E+03   70.00  120.00   14.52    0.00    0.00    0.00    0.20  863.15   31.70  360.69  449.58    0.70    0.10    4.47    6.98    0.90   31.70
    143 143   Tv5-b-56   .179E+03   79.00  140.00    6.93    0.00    0.00    0.00    0.20  658.24   30.07   96.55  518.59   12.20    0.10   15.74    0.05    0.00   30.07
    144 144   I-Hl-Kl-   .123E+03   84.00  120.00    2.29    0.00    0.00    0.00    0.20  439.91   27.34   30.82  360.21   24.33    0.05   13.15    0.00    0.00   27.34
    145 145   I-Bh-Tv-   .269E+03   70.00  120.00   12.67    0.00    0.00    0.00    0.20  701.95   13.45  215.40  453.77    0.29    0.08    2.20   14.75    5.61   13.45
    146 146   I-Hl-Kl-   .618E+02   87.00  120.00    1.91    0.00    0.00    0.00    0.20  502.36   98.09   29.03  351.77   75.91    0.06   16.77    0.00    0.00   98.07
    147 147   Kk1-3a-5   .307E+03   79.00  180.00    1.96    0.00    0.00    0.00    0.20  688.80   31.61  144.15  487.75   20.02    0.05   12.97    0.00    0.00   31.60
    148 148   I-Hl-Kl-   .339E+03   79.00  120.00   12.64    0.00    0.00    0.00    0.20  743.07   57.45  224.88  438.01    9.02    0.05    9.20    1.02    0.00   57.45
    149 149   I-Bd-c-5   .547E+03   70.00  100.00   14.31    0.00    0.00    0.00    0.20 1681.89  185.62  931.63  528.66   11.67    0.28   21.25   10.57    4.24  185.59
    150 150   I-Hl-Kl-   .162E+03   77.00  120.00   10.59    0.00    0.00    0.00    0.20 1244.06  174.42  555.66  478.75   41.31    0.08   13.41    7.07    2.99  174.41
    151 151   I-Bd-c-5   .240E+03   70.00  100.00   14.95    0.00    0.00    0.00    0.20 2516.42  542.44 1372.81  554.35  539.85    4.42   27.92   10.04    6.13  542.42
    152 152   I-Bd-c-5   .217E+03   70.00  100.00   12.91    0.00    0.00    0.00    0.20 3612.37 1130.04 1793.44  627.44  782.18    6.94   28.35    8.84    6.19 1129.99
    153 153   I-Bd-c-5   .771E+02   70.00  100.00   11.29    0.00    0.00    0.00    0.20 3729.35 1183.05 1866.08  614.91  896.28    7.06   28.30    8.56    5.99 1183.03
    154 154   I-Bd-c-5   .221E+03   70.00  100.00    4.94    0.00    0.00    0.00    0.20 3042.17  766.92 1567.12  636.63  265.29    4.13   27.98    7.70    5.39  766.90



                AVE MONTHLY BASIN VALUES
                   SNOW                      WATER               SED
  MON     RAIN     FALL   SURF Q    LAT Q    YIELD       ET    YIELD      PET
          (MM)     (MM)     (MM)     (MM)     (MM)     (MM)   (T/HA)     (MM)
    1   144.53     0.00    18.09    24.52    57.53    57.88    22.89    79.36
    2   154.50     0.00    23.18    29.02    77.25    53.19    28.85    67.41
    3   143.65     0.00    21.00    27.26    85.65    53.26    18.79    67.91
    4    65.19     0.00     7.20    12.45    56.34    39.65     4.35    60.47
    5    20.51     0.00     1.23     2.64    28.94    29.71     1.38    76.84
    6     8.52     0.00     0.30     0.90    11.87    18.26     0.38    78.30
    7     7.89     0.00     0.17     0.77     3.65    15.47     0.05    87.00
    8    13.26     0.00     0.36     1.31     2.53    16.13     0.38    91.65
    9    34.18     0.00     1.34     3.20     5.08    21.70     1.32    81.39
   10    69.83     0.00     5.30     9.03    15.25    37.82     2.96    82.73
   11    73.12     0.00     4.45     9.97    17.77    44.25     3.95    83.11
   12   110.71     0.00     7.49    16.21    30.89    52.90     7.71    79.55

     AVE ANNUAL BASIN STRESS DAYS
               WATER STRESS DAYS =    15.68
               TEMPERATURE STRESS DAYS =   281.71
               NITROGEN STRESS DAYS =    36.15
               PHOSPHORUS STRESS DAYS =     0.31
               AERATION STRESS DAYS =     0.00
1
    SWAT Sep 7    VER 2018/Rev 670                                                  

    General Input/Output section (file.cio):                                        
    2020-03-28 00:00:00 ARCGIS-SWAT interface AV                                    
                                                                                    
         AVE ANNUAL BASIN VALUES

              PRECIP =    841.9 MM
              SNOW FALL =    0.00 MM
              SNOW MELT =     0.00 MM
              SUBLIMATION =     0.00 MM
              SURFACE RUNOFF Q =    89.52 MM
              LATERAL SOIL Q =  136.53 MM
              TILE Q =     0.00 MM
              GROUNDWATER (SHAL AQ) Q =   155.63 MM
              GROUNDWATER (DEEP AQ) Q =     9.09 MM
              REVAP (SHAL AQ => SOIL/PLANTS) =   17.60 MM
              DEEP AQ RECHARGE =     9.05 MM
              TOTAL AQ RECHARGE =  181.08 MM
              TOTAL WATER YLD =   390.77 MM
              PERCOLATION OUT OF SOIL =  180.30 MM
              ET =    438.9 MM
              PET =    934.0MM
              TRANSMISSION LOSSES =     0.00 MM
              SEPTIC INFLOW =       0.00 MM
              TOTAL SEDIMENT LOADING =     92.26 T/HA
              TILE FROM IMPOUNDED WATER =     0.000 (MM)
              EVAPORATION FROM IMPOUNDED WATER =     0.000 (MM)
              SEEPAGE INTO SOIL FROM IMPOUNDED WATER =    0.000 (MM)
              OVERFLOW FROM IMPOUNDED WATER =    0.000 (MM)
1
    SWAT Sep 7    VER 2018/Rev 670                                                  

    General Input/Output section (file.cio):                                        
    2020-03-28 00:00:00 ARCGIS-SWAT interface AV                                    
                                                                                    
              AVE ANNUAL BASIN VALUES


              NUTRIENTS
                   ORGANIC N =    18.797 (KG/HA)
                   ORGANIC P =     2.326 (KG/HA)
                   NO3 YIELD (SQ) =     0.059 (KG/HA)
                   NO3 YIELD (LAT) =    0.269 (KG/HA)
                   NO3 YIELD (TILE) =    0.000 (KG/HA)
                   SOLP YIELD (TILE) =    0.000(KG/HA)
                   SOLP YIELD (SURF INLET RISER) =    0.000 (KG/HA)
                   SOL P YIELD =    0.031 (KG/HA)
                   NO3 LEACHED =     4.763 (KG/HA)
                   P LEACHED =     0.080 (KG/HA)
                   N UPTAKE =     3.012 (KG/HA)
                   P UPTAKE =    0.874 (KG/HA)
                   NO3 YIELD (GWQ) =     0.042 (KG/HA)
                   ACTIVE TO SOLUTION P FLOW =         0.483 (KG/HA)
                   ACTIVE TO STABLE P FLOW =         0.523 (KG/HA)
                   N FERTILIZER APPLIED =     0.013 (KG/HA)
                   P FERTILIZER APPLIED =     0.000 (KG/HA)
                   N FIXATION =     0.000 (KG/HA)
                   DENITRIFICATION =     0.000 (KG/HA)
                   HUMUS MIN ON ACTIVE ORG N =     6.311 (KG/HA)
                   ACTIVE TO STABLE ORG N =    -5.135 (KG/HA)
                   HUMUS MIN ON ACTIVE ORG P =    1.079 (KG/HA)
                   MIN FROM FRESH ORG N =    1.956 (KG/HA)
                   MIN FROM FRESH ORG P =    0.583 (KG/HA)
                   NO3 IN RAINFALL =     0.680 (KG/HA)
                   INITIAL NO3 IN SOIL =      38.949 (KG/HA)
                   FINAL NO3 IN SOIL =        10.819 (KG/HA)
                   INITIAL ORG N IN SOIL =   11486.995 (KG/HA)
                   FINAL ORG N IN SOIL =     10498.983 (KG/HA)
                   INITIAL MIN P IN SOIL =    2050.934 (KG/HA)
                   FINAL MIN P IN SOIL =      1974.984 (KG/HA)
                   INITIAL ORG P IN SOIL =    1407.157 (KG/HA)
                   FINAL ORG P IN SOIL =    1278.318 (KG/HA)
                   NO3 IN FERT =     0.013 (KG/HA)
                   AMMONIA IN FERT =     0.000 (KG/HA)
                   ORG N IN FERT =     0.000 (KG/HA)
                   MINERAL P IN FERT =     0.001 (KG/HA)
                   ORG P IN FERT =     0.000 (KG/HA)
                   N REMOVED IN YIELD =     0.865 (KG/HA)
                   P REMOVED IN YIELD =     0.237 (KG/HA)
                   AMMONIA VOLATILIZATION =     0.000 (KG/HA)
                   AMMONIA NITRIFICATION =      0.000 (KG/HA)
                   NO3 EVAP-LAYER 2 TO 1 =    2.775

                   DIE-GRO P Q =           0.0 (No/M2)
                   DIE-GRO LP Q =           0.0 (No/M2)
                   DIE-GRO P SED =          0.0 (No/M2)
                   DIE-GRO LP SED =          0.0 (No/M2)
                   BACT P RUNOFF =          0.0 (No/M2)
                   BACT LP RUNOFF =          0.0 (No/M2)
                   BACT P SEDIMENT =          0.0 (No/M2)
                   BACT LP SEDIMENT =          0.0 (No/M2)
                   BACT P INCORP =          0.0 (No/M2)
                   BACT LP INCORP =          0.0 (No/M2)

                   NITRATE SEPTIC =         0.00 (kg/ha)
                   AMMONIA SEPTIC =         0.00 (kg/ha)
                   ORG N SEPTIC =         0.00 (kg/ha)
                   FRESH ORGN SEPTIC =         0.00 (kg/ha)
                   ORG P SEPTIC =         0.00 (kg/ha)
                   FRESH ORGP SEPTIC =         0.00 (kg/ha)
                   SOL P SEPTIC =         0.00 (kg/ha)
                   BOD SEPTIC =         0.00 (kg/ha)
